/*--------------------------------*- C++ -*----------------------------------*\
| =========                 |                                                 |
| \\      /  F ield         | OpenFOAM: The Open Source CFD Toolbox           |
|  \\    /   O peration     | Version:  2.2.x                                 |
|   \\  /    A nd           | Web:      www.OpenFOAM.org                      |
|    \\/     M anipulation  |                                                 |
\*---------------------------------------------------------------------------*/
FoamFile
{
    version     2.0;
    format      ascii;
    class       extendedFeatureEdgeMesh;
    location    "constant/extendedFeatureEdgeMesh";
    object      back_left.extendedFeatureEdgeMesh;
}
// * * * * * * * * * * * * * * * * * * * * * * * * * * * * * * * * * * * * * //

// points

129
(
(1.79993 3.52736 1.41806)
(1.79848 3.53249 1.07532)
(1.8 3.60701 1.37851)
(1.86678 3.57 1.4208)
(1.8581 3.56457 1.42684)
(1.94219 3.57911 1.3871)
(1.87708 3.5738 1.41561)
(1.87705 3.57381 1.41562)
(1.87691 3.57379 1.41569)
(1.88855 3.59229 1.40013)
(1.8669 3.57003 1.42074)
(1.8 3.58414 1.42485)
(1.8 3.62003 1.32917)
(1.94219 3.56559 1.3943)
(1.94219 3.55032 1.39686)
(1.89878 3.57779 1.40669)
(1.88776 3.57632 1.41112)
(1.87713 3.57375 1.4156)
(1.87702 3.57381 1.41564)
(1.86464 3.56873 1.42212)
(1.86348 3.56815 1.42285)
(1.8658 3.56936 1.4214)
(1.85753 3.54594 1.4244)
(1.86127 3.56682 1.42437)
(1.86232 3.56753 1.42363)
(1.86075 3.56644 1.42475)
(1.86022 3.56609 1.42514)
(1.8597 3.56574 1.42554)
(1.85918 3.56537 1.42595)
(1.85868 3.565 1.42635)
(1.8602 3.56612 1.42516)
(1.86461 3.56881 1.42213)
(1.86234 3.56752 1.42362)
(1.86698 3.56997 1.4207)
(1.90707 3.5424 1.07739)
(1.90689 3.5423 1.07653)
(1.90764 3.5427 1.08013)
(1.9081 3.54294 1.08234)
(1.80021 3.62018 1.25488)
(1.80031 3.61085 1.18153)
(1.80093 3.59536 1.07937)
(1.86236 3.5675 1.4236)
(1.89468 3.53681 1.40105)
(1.94219 3.53506 1.39432)
(1.851 3.53049 1.41958)
(1.93126 3.56097 1.2076)
(1.93433 3.55724 1.23931)
(1.90658 3.54226 1.07753)
(1.9067 3.54226 1.07837)
(1.90679 3.54229 1.07753)
(1.92389 3.53889 1.22926)
(1.91432 3.54078 1.1435)
(1.92387 3.53882 1.2295)
(1.91436 3.54088 1.14328)
(1.90743 3.54232 1.0808)
(1.86463 3.56876 1.42212)
(1.91035 3.54413 1.09313)
(1.91742 3.54786 1.127)
(1.92778 3.55332 1.17661)
(1.89874 3.57808 1.40657)
(1.90297 3.58694 1.39983)
(1.86688 3.57003 1.42075)
(1.94219 3.57278 1.39116)
(1.94219 3.57607 1.38923)
(1.89835 3.55163 1.40686)
(1.87717 3.54973 1.41401)
(1.94219 3.57879 1.38734)
(1.94219 3.57849 1.38757)
(1.94219 3.57761 1.3882)
(1.86696 3.57001 1.42071)
(1.81553 3.61475 1.17589)
(1.83146 3.61611 1.17116)
(1.90644 3.58608 1.16448)
(1.9176 3.57386 1.16681)
(1.89347 3.59656 1.16337)
(1.8771 3.57379 1.41561)
(1.94219 3.54258 1.39622)
(1.93178 3.55436 0.0916016)
(1.93161 3.55431 0.0916016)
(1.93165 3.54566 0.0916016)
(1.93182 3.54692 0.0916016)
(1.90663 3.54228 1.07738)
(1.90673 3.54228 1.07753)
(1.90686 3.54228 1.07753)
(1.90705 3.54243 1.07739)
(1.90708 3.5424 1.07759)
(1.90244 3.5403 1.19481)
(1.90677 3.54223 1.08011)
(1.90912 3.54197 1.09598)
(1.91195 3.53993 1.2186)
(1.908 3.54221 1.08591)
(1.87714 3.57373 1.4156)
(1.86464 3.56863 1.42212)
(1.86522 3.56891 1.42177)
(1.86349 3.56812 1.42285)
(1.86407 3.56834 1.42248)
(1.87715 3.5736 1.41561)
(1.87715 3.57367 1.4156)
(1.867 3.56986 1.4207)
(1.91441 3.54087 1.14373)
(1.87198 3.58601 1.40965)
(1.87986 3.58977 1.4046)
(1.94219 3.59823 1.35464)
(1.94219 3.59586 1.36408)
(1.94219 3.59878 1.34498)
(1.94219 3.59452 1.32627)
(1.94219 3.59754 1.33544)
(1.94219 3.58976 1.31776)
(1.88018 3.60302 1.38526)
(1.89595 3.60583 1.37827)
(1.94219 3.58617 1.38055)
(1.94219 3.59179 1.37281)
(1.8 3.59622 1.40193)
(1.83034 3.57734 1.42621)
(1.85864 3.55997 1.42641)
(1.90056 3.56128 1.07684)
(1.90412 3.55193 1.07758)
(1.85602 3.5939 1.08025)
(1.88072 3.58106 1.07905)
(1.82879 3.59882 1.08037)
(1.86581 3.56931 1.4214)
(1.87193 3.5346 1.40854)
(1.89682 3.5439 1.40464)
(1.91829 3.53695 1.39655)
(1.85488 3.53781 1.42243)
(1.94219 3.57227 1.30228)
(1.94219 3.58192 1.30894)
(1.94219 3.5615 1.2982)
(1.8 3.59621 1.40038)
)

// edges

181
(
(91 17)
(16 6)
(23 4)
(28 4)
(29 4)
(30 23)
(92 93)
(94 19)
(95 92)
(96 97)
(93 98)
(0 11)
(1 0)
(40 1)
(0 44)
(35 47)
(1 35)
(50 99)
(99 53)
(54 37)
(43 46)
(18 8)
(7 18)
(3 4)
(100 101)
(102 103)
(104 102)
(105 106)
(107 105)
(108 109)
(110 5)
(103 111)
(106 104)
(111 110)
(11 112)
(113 11)
(4 113)
(112 2)
(2 12)
(9 101)
(13 14)
(15 16)
(5 15)
(20 19)
(25 4)
(33 21)
(22 114)
(115 116)
(34 36)
(116 35)
(38 39)
(39 40)
(117 118)
(118 115)
(119 117)
(40 119)
(114 4)
(19 120)
(20 94)
(41 25)
(98 96)
(97 91)
(120 95)
(42 121)
(122 43)
(43 123)
(44 124)
(121 44)
(124 22)
(123 42)
(45 46)
(125 126)
(127 125)
(126 107)
(46 127)
(11 128)
(128 2)
(51 52)
(45 43)
(5 59)
(7 60)
(59 6)
(10 61)
(61 9)
(60 8)
(9 3)
(62 13)
(16 5)
(63 62)
(17 15)
(64 65)
(10 16)
(15 6)
(66 67)
(67 68)
(5 66)
(68 63)
(21 55)
(24 26)
(27 30)
(69 31)
(31 32)
(4 69)
(27 29)
(65 22)
(30 24)
(3 32)
(20 31)
(31 33)
(70 71)
(39 70)
(72 73)
(74 72)
(71 39)
(73 74)
(41 20)
(23 41)
(75 10)
(6 75)
(17 33)
(76 43)
(22 64)
(14 76)
(77 78)
(78 79)
(79 80)
(80 77)
(14 43)
(5 13)
(35 81)
(81 47)
(82 49)
(49 48)
(49 35)
(35 83)
(83 49)
(84 45)
(35 84)
(85 34)
(35 85)
(52 50)
(53 51)
(36 54)
(86 48)
(48 87)
(53 88)
(42 86)
(87 89)
(88 90)
(43 50)
(47 82)
(48 42)
(89 35)
(35 51)
(52 43)
(90 54)
(6 7)
(8 10)
(10 6)
(6 8)
(6 18)
(19 55)
(19 21)
(24 23)
(4 24)
(23 25)
(25 26)
(26 27)
(27 28)
(28 29)
(26 23)
(4 32)
(35 34)
(36 37)
(37 56)
(56 57)
(57 58)
(12 38)
(58 45)
(40 12)
(38 40)
)

// concaveStart mixedStart nonFeatureStart
2 3 55
// internalStart flatStart openStart multipleStart
23 79 79 156
// normals

209
(
(-0.423128 -0.221377 -0.87861)
(0.451691 0.427778 0.782931)
(-0.451691 -0.427778 -0.782931)
(-0.19911 -0.554475 -0.80803)
(0.413896 0.111343 0.903489)
(-0.413896 -0.111343 -0.903489)
(0.228725 0.510216 0.829074)
(-0.411367 -0.118505 -0.903733)
(0.417816 0.0337178 0.907906)
(-0.417816 -0.0337178 -0.907906)
(0.504522 0.0846826 0.859236)
(0.490629 0.0815464 0.867545)
(0.503994 0.0845632 0.859558)
(-0.497818 -0.0652087 -0.864826)
(0.496414 0.0684309 0.865385)
(-0.350147 0.871475 0.343406)
(0.366536 -0.873028 -0.321672)
(-0.698803 0.533535 -0.47646)
(0.559625 0.0947822 0.823308)
(0.559625 0.0947822 0.823308)
(-0.689822 0.66879 -0.277247)
(0.645058 -0.130309 0.752941)
(-0.645058 0.130309 -0.752941)
(-0.645058 0.130309 -0.752941)
(-0.456372 -0.234394 -0.858361)
(0.113638 0.664637 0.738474)
(-0.59019 -0.0149607 -0.807126)
(0.0595931 0.704801 0.706898)
(-0.589076 -0.0372816 -0.807217)
(-0.601098 -0.0104759 -0.799106)
(-0.119569 0.807103 0.578176)
(-0.185016 -0.599118 -0.778991)
(-0.613303 -0.0068273 -0.789818)
(-0.541057 0.835775 0.0934758)
(-0.624678 -0.00490136 -0.780867)
(-0.580729 -0.027431 -0.813635)
(0.139289 0.63222 0.762166)
(0.0869437 0.675128 0.73256)
(-0.967788 -0.139674 0.209472)
(0.894416 0.388425 -0.221688)
(-0.657096 0.752116 0.0504645)
(-0.953977 -0.202202 0.221455)
(0.795021 0.562139 -0.227905)
(-0.789463 0.605906 0.0981114)
(-0.954006 -0.202089 0.221434)
(0.795424 0.561573 -0.227897)
(0.796691 -0.595932 -0.100737)
(-0.954004 -0.202097 0.221435)
(0.795466 0.561513 -0.227896)
(0.799333 -0.592218 -0.101707)
(-0.954006 -0.20209 0.221433)
(0.795485 0.561486 -0.227895)
(0.800873 -0.590037 -0.102268)
(0.318328 -0.94798 -0.00096244)
(-0.999952 -0.00941063 -0.00280539)
(-0.999952 -0.00941063 -0.00280539)
(-0.958997 -0.230724 0.164596)
(0.987504 -0.137568 -0.0768796)
(-0.999943 -0.0102948 -0.00271801)
(-0.981794 -0.188596 0.0226108)
(-0.298091 -0.64916 -0.69981)
(-0.243618 -0.510339 -0.824745)
(-0.433365 -0.348116 -0.83127)
(-0.0609165 -0.716928 -0.69448)
(-0.282126 -0.489696 -0.824986)
(-0.326481 -0.378736 -0.866007)
(0.386708 -0.403017 0.829478)
(-0.33022 -0.476809 -0.814622)
(-0.35707 -0.126397 -0.925486)
(-0.325951 0.0965044 -0.940448)
(-0.345975 -0.177797 -0.921243)
(-0.324732 -0.56594 -0.7578)
(-0.327693 -0.549599 -0.768478)
(-0.322787 -0.572399 -0.753769)
(-0.328223 -0.525789 -0.784739)
(0.0938449 0.677962 0.729083)
(-0.483904 0.137283 -0.864286)
(-0.510318 -0.0704836 -0.857093)
(-0.583115 0.234521 -0.777803)
(0.138279 -0.972726 0.186236)
(0.287936 -0.949954 0.121162)
(-0.741203 -0.634591 0.218888)
(-0.625463 -0.751699 0.209153)
(0.212111 -0.965999 0.147831)
(-0.684523 -0.692911 0.226501)
(-0.530412 -0.0610129 -0.845542)
(0.40002 0.147738 0.904521)
(-0.170374 0.2412 -0.955403)
(-0.392535 0.554537 -0.733761)
(-0.219314 0.0806149 -0.972318)
(0 -0 1)
(0 0 1)
(1 0 0)
(1 0 0)
(0.950898 -0.0964099 0.294105)
(0.0870549 -0.995967 -0.0216905)
(-0.0384981 -0.998979 -0.0236518)
(0.820388 0.524714 -0.227241)
(-0.801284 0.589442 0.102478)
(-0.801128 0.58967 0.102385)
(0.0349177 -0.999269 -0.0155548)
(0.800655 -0.590306 -0.102424)
(0.00323393 -0.999854 -0.0167939)
(0.00315211 -0.999855 -0.0167612)
(0.798873 -0.592737 -0.102299)
(0.801074 -0.589731 -0.102459)
(0.108953 -0.994003 -0.00937681)
(0.0924244 -0.99563 -0.0133732)
(-0.0800779 -0.996693 -0.0138159)
(-0.0800889 -0.996692 -0.0138146)
(0.79305 -0.600589 -0.101803)
(-0.643262 -0.00457306 -0.765632)
(-0.494518 -0.0807668 -0.865407)
(0.515874 0.0248394 0.856304)
(-0.513224 -0.0628951 -0.855947)
(-0.496876 -0.0928929 -0.862835)
(0.564219 -0.0961968 0.820002)
(-0.347747 -0.162342 -0.923427)
(0.3943 0.16201 0.904588)
(0.451419 0.141083 0.881088)
(-0.52885 0.0404891 -0.847749)
(-0.999995 0.00144983 -0.00265921)
(-0.0708147 -0.118444 0.990432)
(-0.999239 0.0386943 0.00482021)
(0.0903645 -0.995792 -0.0152767)
(0.0273944 0.0632779 -0.99762)
(-0.00570537 -0.360708 0.932661)
(0.0617791 -0.997793 -0.0243376)
(0.0903128 -0.995834 -0.0125619)
(0.00145088 0.107138 -0.994243)
(-0.801217 0.589534 0.102473)
(0.80107 -0.589736 -0.102461)
(0.800982 -0.589871 -0.102374)
(0.928908 -0.357054 -0.0981963)
(0.480894 -0.864191 -0.148039)
(-0.269716 -0.489951 -0.828976)
(-0.301752 -0.477078 -0.825434)
(0.12475 -0.87914 -0.459946)
(-0.424784 -0.877983 -0.220692)
(1 0 0)
(-0.437276 -0.897855 -0.0514315)
(1 0 0)
(-0.474402 -0.836136 0.275351)
(1 0 0)
(-0.364638 -0.812774 0.454353)
(1 0 0)
(-0.122298 -0.794305 -0.595082)
(0.177424 -0.98412 0.00527739)
(1 0 0)
(-0.350967 -0.848883 -0.395246)
(1 0 0)
(-0.452467 -0.884248 0.115668)
(-0.350834 -0.757731 -0.550236)
(1 0 0)
(-0.174733 -0.871118 -0.458935)
(0.999997 0.00202782 0.0011515)
(-0.238482 -0.557781 -0.794989)
(-0.0756052 -0.115529 0.990423)
(0.0254203 -0.907979 -0.418244)
(0.999996 0.00249701 0.0011502)
(0.307452 -0.920038 -0.242907)
(-0.0292135 -0.845337 -0.533434)
(-0.223981 -0.161298 -0.961153)
(1 0 0)
(0.480284 0.0726153 0.874102)
(-0.557763 0.161002 -0.814235)
(-0.0646722 -0.136963 0.988463)
(-0.917307 -0.331818 0.220103)
(0.0335382 -0.0659209 -0.997261)
(-0.954031 -0.201991 0.221416)
(0.892578 0.388355 -0.229096)
(-0.926199 -0.293018 0.237268)
(0.00141952 0.108253 -0.994122)
(-0.442041 -0.870275 0.217303)
(-0.00468176 0.0843875 -0.996422)
(-0.673988 -0.701713 0.230953)
(-0.0128248 0.0980737 -0.995097)
(-0.173643 -0.966481 0.189111)
(0.0087039 0.0719743 -0.997369)
(0.114865 -0.976466 0.18254)
(0.0276864 0.0633171 -0.997609)
(-0.0851826 -0.100755 0.991258)
(-0.464796 -0.142668 -0.873848)
(0.516754 0.0562091 0.854287)
(-0.683589 0.347921 -0.641605)
(0.420039 0.088876 0.903144)
(-0.395969 -0.156507 -0.904828)
(0.399635 0.14878 0.90452)
(-0.352414 -0.140278 -0.925271)
(-0.313296 0.509255 -0.801564)
(-0.0008341 0.757866 -0.65241)
(-0.473429 0.526432 -0.706211)
(-0.474438 0.53179 -0.701504)
(0.191385 -0.981512 -0.00262391)
(-0.487714 0.351848 -0.798961)
(-0.0349402 -0.224163 0.973925)
(-0.166818 0.485034 -0.858437)
(0.00292827 -0.999854 -0.0168229)
(-0.988468 -0.128242 0.0805266)
(-0.971949 -0.13371 0.193488)
(1 0 0)
(-0.978435 -0.0731771 0.19316)
(1 0 0)
(-0.93655 -0.261893 0.232995)
(1 0 0)
(-0.982085 -0.125897 0.14021)
(-0.99998 -0.00554375 -0.00288615)
(-0.999978 -0.00601304 -0.00288489)
(-0.080093 -0.996692 -0.0138163)
)

// edgeNormals

181
(
2(68 86)
2(6 70)
2(15 20)
2(30 33)
2(33 111)
2(35 17)
2(112 113)
2(12 114)
2(115 116)
2(117 118)
2(119 120)
2(121 122)
2(123 124)
2(123 125)
2(126 127)
2(128 94)
2(128 129)
2(130 131)
2(99 132)
2(43 110)
2(133 134)
2(8 9)
2(1 2)
2(135 37)
2(136 137)
2(138 139)
2(140 141)
2(142 143)
2(144 145)
2(146 147)
2(60 148)
2(149 150)
2(151 141)
2(152 153)
2(154 155)
2(154 122)
2(156 157)
2(158 159)
2(160 58)
2(161 64)
2(162 163)
2(66 70)
2(66 73)
2(10 77)
2(20 25)
2(164 78)
2(165 166)
2(167 168)
2(169 170)
2(171 172)
2(80 59)
2(83 59)
2(173 174)
2(175 176)
2(177 178)
2(179 180)
2(111 181)
2(14 182)
2(183 85)
2(24 184)
2(185 186)
2(187 188)
2(182 116)
2(189 107)
2(190 87)
2(190 109)
2(191 126)
2(192 193)
2(194 195)
2(196 197)
2(198 134)
2(199 200)
2(201 202)
2(203 204)
2(205 133)
2(155 206)
2(159 207)
2(98 208)
2(57 134)
1(60)
1(0)
1(61)
1(62)
1(62)
1(63)
1(64)
1(65)
1(66)
1(67)
1(68)
1(69)
1(6)
1(70)
1(71)
1(72)
1(73)
1(74)
1(11)
1(16)
1(28)
1(75)
1(75)
1(36)
1(31)
1(76)
1(17)
1(37)
1(77)
1(78)
1(79)
1(80)
1(81)
1(82)
1(83)
1(84)
1(85)
1(24)
1(7)
1(7)
1(86)
1(87)
1(88)
1(89)
1(90)
1(90)
1(91)
1(91)
1(92)
1(93)
1(94)
1(94)
1(95)
1(95)
1(96)
1(96)
1(96)
1(97)
1(39)
1(40)
1(40)
1(98)
1(99)
1(43)
1(100)
1(100)
1(101)
1(102)
1(103)
1(104)
1(105)
1(106)
1(107)
1(108)
1(108)
1(109)
1(110)
3(0 1 2)
3(3 4 5)
4(4 6 7 5)
4(4 8 5 9)
4(8 1 9 2)
3(10 11 12)
3(11 13 14)
3(15 16 17)
3(15 18 19)
5(20 21 22 23 24)
5(25 21 22 26 23)
3(27 28 29)
3(30 31 32)
3(33 31 34)
5(16 21 35 22 23)
4(18 36 19 37)
3(38 39 40)
3(41 42 43)
3(44 45 46)
3(47 48 49)
3(50 51 52)
3(53 54 55)
3(56 51 57)
3(54 58 55)
3(54 55 59)
)

// featurePointNormals

55
(
6(121 122 123 124 126 127)
5(123 124 125 128 129)
5(158 159 160 58 207)
3(135 37 64)

13
(
15
20
30
33
111
135
37
156
157
25
181
36
18
)

4(60 148 66 73)

11
(
6
70
61
7
0
1
2
4
5
8
9
)

3(1 2 0)
6(8 9 63 3 4 5)
3(161 64 62)
6(62 6 7 3 4 5)
5(121 122 154 155 206)
3(160 58 53)
3(162 163 65)
3(162 163 89)
4(66 70 73 68)
3(6 70 66)
2(68 86)
4(8 9 1 2)
7(12 114 77 14 182 11 13)
4(10 77 183 85)
5(164 78 11 13 14)
6(165 166 194 195 76 88)
8(15 20 35 17 24 16 21 22)
4(16 17 15 18)
7(20 25 24 184 21 22 26)
9(16 25 21 22 26 27 28 29 35)
6(28 31 27 29 30 32)
5(30 33 31 32 34)
4(33 111 31 34)
3(35 17 28)
3(75 77 78)
4(75 37 18 36)
3(164 78 86)
5(169 170 40 38 39)
9(128 94 129 171 96 39 40 108 38)
4(169 170 43 42)
5(43 110 41 42 46)
4(80 59 53 54)
3(80 59 83)
6(123 125 83 59 179 54)
3(24 184 85)
4(189 107 196 197)
8(133 134 190 87 109 57 92 105)
5(126 127 191 192 193)
6(198 134 57 97 56 51)
4(133 134 198 205)
3(128 94 106)
3(95 100 107)
2(95 96)
2(130 131)
2(98 208)
2(98 208)
2(99 132)
2(43 110)
)

// featurePointEdges

55
(
3(11 12 14)
3(12 13 16)
3(37 38 76)
3(23 85 106)
10(23 36 2 164 44 3 4 171 56 102)
6(30 42 79 87 95 128)
8(156 158 159 1 160 81 92 118)
3(156 22 80)
4(157 159 21 84)
3(39 83 85)
5(157 158 82 91 117)
4(34 35 75 11)
3(38 177 179)
3(40 86 128)
3(40 122 127)
4(41 42 89 92)
4(41 1 87 91)
3(0 89 119)
3(160 21 22)
5(161 43 162 57 7)
4(43 58 107 115)
3(162 45 97)
4(46 68 104 121)
6(2 163 165 170 5 116)
4(163 164 98 105)
4(44 165 166 59)
4(166 167 170 98)
4(167 168 99 103)
3(3 168 169)
3(169 4 103)
3(5 99 105)
4(100 101 107 108)
3(171 101 106)
3(45 108 119)
3(172 48 138)

11
(
172
49
15
16
129
133
134
137
139
152
153
)

3(48 173 142)
3(173 174 19)
3(177 50 180)
4(50 51 110 113)
5(51 55 179 180 13)
3(59 115 116)
4(63 69 146 151)
8(64 65 78 20 120 127 149 154)
3(66 67 14)
4(70 178 78 136)
3(70 74 20)
3(15 130 150)
4(132 143 144 151)
4(131 132 133 135)
3(17 140 149)
3(77 141 153)
3(77 140 154)
3(18 141 145)
3(19 142 155)
)

// regionEdges

102
(
156
157
158
159
160
161
162
163
164
165
166
167
168
169
170
171
172
173
174
175
176
177
178
179
180
79
80
81
82
83
84
85
86
87
88
89
90
91
92
93
94
95
96
97
98
99
100
101
102
103
104
105
106
107
108
109
110
111
112
113
114
115
116
117
118
119
120
121
122
123
124
125
126
127
128
129
130
131
132
133
134
135
136
137
138
139
140
141
142
143
144
145
146
147
148
149
150
151
152
153
154
155
)



// ************************************************************************* //
