/*--------------------------------*- C++ -*----------------------------------*\
| =========                 |                                                 |
| \\      /  F ield         | OpenFOAM: The Open Source CFD Toolbox           |
|  \\    /   O peration     | Version:  2.2.x                                 |
|   \\  /    A nd           | Web:      www.OpenFOAM.org                      |
|    \\/     M anipulation  |                                                 |
\*---------------------------------------------------------------------------*/
FoamFile
{
    version     2.0;
    format      ascii;
    class       extendedFeatureEdgeMesh;
    location    "constant/extendedFeatureEdgeMesh";
    object      back_right.extendedFeatureEdgeMesh;
}
// * * * * * * * * * * * * * * * * * * * * * * * * * * * * * * * * * * * * * //

// points

116
(
(1.65781 3.58977 1.31777)
(1.67943 3.57947 1.39728)
(1.72807 3.5346 1.40854)
(1.73533 3.53998 1.41672)
(1.74246 3.54594 1.42435)
(1.73322 3.57 1.4208)
(1.65781 3.57911 1.3871)
(1.7419 3.56457 1.42684)
(1.8 3.58414 1.42485)
(1.80021 3.62018 1.25488)
(1.80031 3.61085 1.18153)
(1.70122 3.57779 1.40669)
(1.74137 3.56001 1.42642)
(1.74172 3.56344 1.42675)
(1.74181 3.56401 1.42679)
(1.73308 3.57003 1.42073)
(1.65781 3.53512 1.39434)
(1.69588 3.55193 1.07758)
(1.77278 3.5991 1.08039)
(1.69311 3.5423 1.07753)
(1.80093 3.59536 1.07937)
(1.67273 3.53095 1.18663)
(1.69006 3.52267 1.0741)
(1.68997 3.5227 1.07468)
(1.79993 3.52736 1.41806)
(1.65781 3.53515 1.39411)
(1.69014 3.52271 1.07468)
(1.69001 3.5227 1.07468)
(1.69009 3.5227 1.07468)
(1.65782 3.53511 1.3941)
(1.69011 3.52272 1.07501)
(1.69014 3.5227 1.07473)
(1.66762 3.53133 1.29686)
(1.79848 3.53249 1.07532)
(1.69045 3.52284 1.07681)
(1.69022 3.52273 1.07541)
(1.69031 3.52277 1.07595)
(1.787 3.5983 1.08002)
(1.67222 3.55332 1.17661)
(1.69 3.5227 1.07477)
(1.67667 3.58138 1.20439)
(1.67395 3.5859 1.24241)
(1.6824 3.57386 1.16681)
(1.758 3.51679 1.41274)
(1.72287 3.57375 1.4156)
(1.7229 3.57379 1.41561)
(1.7377 3.56753 1.42364)
(1.74188 3.56448 1.42683)
(1.733 3.56986 1.4207)
(1.73301 3.56992 1.4207)
(1.74189 3.56453 1.42683)
(1.73302 3.56997 1.4207)
(1.74188 3.56444 1.42683)
(1.74186 3.56437 1.42682)
(1.72283 3.54973 1.41401)
(1.74158 3.56231 1.42665)
(1.70165 3.55163 1.40686)
(1.74185 3.5643 1.42682)
(1.74183 3.56415 1.4268)
(1.7418 3.56396 1.42679)
(1.7331 3.57003 1.42074)
(1.72292 3.5738 1.41561)
(1.69447 3.54704 1.07756)
(1.69546 3.55047 1.07757)
(1.6717 3.54209 1.18184)
(1.93178 3.55436 0.0916016)
(1.93161 3.55431 0.0916016)
(1.93165 3.54566 0.0916016)
(1.93182 3.54692 0.0916016)
(1.74193 3.56455 1.42683)
(1.65781 3.53503 1.39407)
(1.67881 3.52701 1.18582)
(1.7416 3.56229 1.42664)
(1.69045 3.52269 1.0753)
(1.73312 3.57003 1.42075)
(1.67943 3.57921 1.39743)
(1.70122 3.57751 1.40678)
(1.71486 3.52373 1.15173)
(1.69195 3.52275 1.08002)
(1.66866 3.58852 1.28046)
(1.65781 3.58196 1.30897)
(1.65781 3.57246 1.30237)
(1.65781 3.56177 1.29827)
(1.65781 3.55032 1.29686)
(1.66556 3.54636 1.24091)
(1.70532 3.53681 1.40105)
(1.71145 3.59229 1.40013)
(1.72014 3.58977 1.4046)
(1.65781 3.58605 1.38068)
(1.65781 3.59449 1.3262)
(1.65781 3.59824 1.35455)
(1.65781 3.59878 1.34486)
(1.65781 3.59584 1.36413)
(1.65781 3.59751 1.33531)
(1.76967 3.57734 1.42621)
(1.71982 3.60302 1.38526)
(1.70405 3.60583 1.37827)
(1.65781 3.59169 1.37296)
(1.8 3.62003 1.32917)
(1.8 3.60701 1.37851)
(1.72802 3.58601 1.40965)
(1.72309 3.57379 1.41569)
(1.65781 3.55032 1.39686)
(1.65781 3.56569 1.39429)
(1.66859 3.57943 1.39237)
(1.74127 3.55527 1.42587)
(1.69034 3.5783 1.4023)
(1.65781 3.5408 1.39528)
(1.69944 3.56128 1.07684)
(1.71962 3.58128 1.07907)
(1.75849 3.59772 1.08048)
(1.74468 3.59421 1.08028)
(1.69649 3.52295 1.09422)
(1.71757 3.53489 1.25808)
(1.70063 3.52736 1.14483)
(1.69289 3.52393 1.09314)
)

// edges

154
(
(5 74)
(11 6)
(75 76)
(23 26)
(30 26)
(2 31)
(32 21)
(33 20)
(8 24)
(4 24)
(77 78)
(34 35)
(79 0)
(0 80)
(80 81)
(81 82)
(82 83)
(83 84)
(2 85)
(3 2)
(86 87)
(6 88)
(89 0)
(90 91)
(92 90)
(91 93)
(93 89)
(8 94)
(95 96)
(88 97)
(98 99)
(100 87)
(97 92)
(5 101)
(10 9)
(9 98)
(94 7)
(102 103)
(6 104)
(103 6)
(12 105)
(1 11)
(1 104)
(6 1)
(106 75)
(76 106)
(14 13)
(105 4)
(107 102)
(16 107)
(85 16)
(17 108)
(108 109)
(110 18)
(109 111)
(111 110)
(84 21)
(22 19)
(30 31)
(99 8)
(77 112)
(112 78)
(113 114)
(114 115)
(115 34)
(34 36)
(113 4)
(40 41)
(42 40)
(43 3)
(4 43)
(41 42)
(11 44)
(45 11)
(7 46)
(46 5)
(47 48)
(49 47)
(50 49)
(51 50)
(52 53)
(4 54)
(13 55)
(48 52)
(55 12)
(54 56)
(53 57)
(58 14)
(57 58)
(14 59)
(59 13)
(7 15)
(15 60)
(60 61)
(44 51)
(15 45)
(61 15)
(56 4)
(19 62)
(62 63)
(63 17)
(20 10)
(21 64)
(64 38)
(21 23)
(65 66)
(66 67)
(67 68)
(68 65)
(7 69)
(24 10)
(16 70)
(70 29)
(28 30)
(31 26)
(31 3)
(71 32)
(21 30)
(30 71)
(24 22)
(29 30)
(20 9)
(69 24)
(72 12)
(24 13)
(13 72)
(18 20)
(19 17)
(73 26)
(35 73)
(36 35)
(3 36)
(3 4)
(7 5)
(18 37)
(37 20)
(21 38)
(23 22)
(9 24)
(25 16)
(26 22)
(27 26)
(23 27)
(27 28)
(28 26)
(16 29)
(29 25)
(22 27)
(39 27)
(23 39)
(28 22)
(32 25)
(22 33)
(33 24)
)

// concaveStart mixedStart nonFeatureStart
0 2 37
// internalStart flatStart openStart multipleStart
12 67 67 132
// normals

193
(
(0.389839 0.51246 -0.765121)
(0.439667 0.460545 -0.771097)
(0.672729 -0.738087 -0.0516081)
(0.26972 -0.489949 -0.828976)
(-0.13618 0.631016 0.763724)
(0.360917 -0.372825 -0.854834)
(-0.0496056 -0.976863 0.208034)
(0.0185838 -0.129396 0.991419)
(-0.0222366 0.0673675 -0.99748)
(-0.195705 -0.964269 0.178564)
(-0.032355 0.0655909 -0.997322)
(0.993282 0.0656739 0.0952797)
(-0.219841 -0.403005 -0.888401)
(0.985482 0.0878811 0.145264)
(0.986287 0.0596068 0.153897)
(-0.0406951 0.997415 -0.059214)
(0.0991256 0.994395 -0.0367904)
(0.0991256 0.994395 -0.0367904)
(0.0991256 0.994395 -0.0367904)
(0.0991256 0.994395 -0.0367904)
(0.0991256 0.994395 -0.0367904)
(0.0991256 0.994395 -0.0367904)
(0.999999 -0.000409474 0.00144153)
(0.999994 0.00196295 0.00279097)
(0.999987 0.00346648 0.00364618)
(-1 0 0)
(0.967144 0.251162 0.0393622)
(0.967144 0.251162 0.0393622)
(-0.0757716 0.995635 -0.0545009)
(-0.0894718 0.994597 -0.052638)
(-0.0894718 0.994597 -0.052638)
(-0.162598 0.985777 -0.0424818)
(-0.162598 0.985777 -0.0424818)
(-0.162598 0.985777 -0.0424818)
(-0.162598 0.985777 -0.0424818)
(-0.162598 0.985777 -0.0424818)
(-0.162598 0.985777 -0.0424818)
(-0.25997 -0.960807 0.096256)
(-0.00814037 0.0251204 0.999651)
(-0.00948732 0.0427902 0.999039)
(-0.00948732 0.0427902 0.999039)
(0.0984453 0.994692 0.0299363)
(-0.0984453 -0.994692 -0.0299363)
(0.0984453 0.994692 0.0299363)
(-0.0247903 0.998467 -0.0494887)
(-0.0247903 0.998467 -0.0494887)
(-0.0247903 0.998467 -0.0494887)
(-0.0247903 0.998467 -0.0494887)
(-0.0247903 0.998467 -0.0494887)
(-0.162578 0.985687 -0.0446001)
(0.982429 -0.178119 0.0557466)
(0.0302223 -0.998826 0.0378544)
(0.967414 0.237325 0.0882439)
(0.967414 0.237325 0.0882439)
(-0.886242 -0.457689 -0.0713905)
(0.0903418 -0.995794 -0.0152766)
(-0.00460746 0.172875 -0.984933)
(0.0903407 -0.995795 -0.0151711)
(0.999239 -0.0386943 -0.00482021)
(0.0903415 -0.995794 -0.0152766)
(0.891026 -0.438907 0.115899)
(0.879838 -0.421929 0.218771)
(0.663772 -0.723531 0.189501)
(0.357058 -0.126391 -0.925492)
(0.278104 -0.418528 -0.864577)
(0.526282 -0.0934545 -0.845159)
(0.529486 -0.0871866 -0.843826)
(0.552779 -0.0340853 -0.83263)
(0.482322 0.137324 -0.865164)
(0.554176 0.00135864 -0.832399)
(0.533495 -0.0778067 -0.842217)
(0.564657 0.029085 -0.824813)
(0.325935 0.0964786 -0.940456)
(0.560154 -0.0167603 -0.828219)
(0.553992 -0.0209991 -0.832257)
(0.554738 -0.018957 -0.831809)
(-0.303131 0.122351 -0.945062)
(0.473692 -0.195661 -0.858681)
(0.414567 -0.109429 -0.903415)
(0.40002 -0.147738 -0.904521)
(0.411289 -0.118329 -0.903792)
(0.392095 0.552722 -0.735364)
(0.93341 -0.270406 0.235852)
(0.933402 -0.27043 0.235855)
(0.933368 -0.270541 0.235864)
(-0.388084 -0.911549 0.135904)
(0 -0 1)
(0 0 1)
(0.0955362 -0.159257 0.982604)
(0.994397 0.0363863 0.0992521)
(0.626254 -0.778408 -0.043428)
(-0.545874 -0.837567 -0.0224432)
(-0.545936 -0.837505 -0.0232076)
(0.0296428 -0.998687 0.0417782)
(0.075624 -0.115715 0.990399)
(0.083511 -0.104077 0.991057)
(0.085586 -0.100655 0.991233)
(-0.0200595 0.0103587 -0.999745)
(-0.125901 -0.987034 0.0995604)
(-0.621637 -0.766671 0.160571)
(0.717571 -0.693917 -0.0597566)
(0.532045 0.481924 -0.696188)
(0.363787 -0.414999 -0.833928)
(-0.393672 -0.354397 0.848189)
(0.0398191 -0.962639 -0.267846)
(0.321693 -0.452972 -0.831462)
(-0.102559 -0.993613 0.0470624)
(-0.955434 -0.292008 -0.0433219)
(0.999999 -0.00107317 -0.000488312)
(0.0708592 -0.118602 0.99041)
(0.0580945 -0.154171 0.986335)
(-0.295205 -0.94939 0.107297)
(0.0903427 -0.995794 -0.0152753)
(-0.940035 0.165899 0.298014)
(0.910075 -0.310045 0.27502)
(0.609058 -0.766763 0.20279)
(-1 0 0)
(0.958483 -0.162577 0.234261)
(-1 0 0)
(0.978397 -0.0740024 0.193039)
(-1 0 0)
(0.990226 -0.0170848 0.13842)
(-1 0 0)
(-0.884885 -0.456988 -0.0902274)
(0.313313 0.509222 -0.801578)
(-0.112367 -0.9925 0.0481391)
(0.432515 0.527561 -0.731171)
(0.282126 -0.489696 -0.824986)
(0.0292135 -0.845337 -0.533434)
(0.298372 -0.648431 -0.700365)
(-1 0 0)
(0.507497 -0.751863 0.42089)
(-1 0 0)
(0.437009 -0.89808 -0.0497535)
(-1 0 0)
(0.425125 -0.877842 -0.220597)
(-1 0 0)
(0.451902 -0.884249 0.117847)
(0.47372 -0.835936 0.27713)
(-1 0 0)
(0.130881 -0.719865 -0.681664)
(-0.177424 -0.98412 0.00527739)
(0.122298 -0.794305 -0.595082)
(0.351793 -0.755447 -0.552758)
(-1 0 0)
(-0.307454 -0.920037 -0.242906)
(1 -0.000956037 -0.000252411)
(-0.12475 -0.87914 -0.459946)
(0.301752 -0.477078 -0.825434)
(0.284949 -0.867671 -0.407371)
(-1 0 0)
(0.200841 -0.553556 -0.808232)
(-0.38434 -0.915888 0.115897)
(-0.318319 -0.94798 -0.00273688)
(0.238483 -0.557781 -0.794988)
(0.22399 -0.160916 -0.961215)
(-1 0 0)
(0.406705 -0.431354 -0.80531)
(-0.245032 -0.799629 0.548227)
(-1 0 0)
(0.566832 0.0834505 -0.819596)
(0.0769617 -0.115633 0.990306)
(0.362685 -0.278304 -0.889385)
(0.370952 -0.444269 -0.815487)
(0.384743 -0.208488 -0.899169)
(0.354677 -0.239025 -0.90392)
(0.55676 -0.0136272 -0.830562)
(0.517843 0.201813 -0.831331)
(0.188903 0.160566 -0.96878)
(-1 0 0)
(0.188903 0.160562 -0.96878)
(0.106554 0.474532 -0.873765)
(0.913562 -0.328881 0.239252)
(-0.0343961 -0.0655937 -0.997253)
(0.673166 -0.704136 0.22592)
(0.0130726 0.0975735 -0.995142)
(0.0951355 -0.969578 0.22554)
(-0.0129973 0.0709251 -0.997397)
(0.439465 -0.871931 0.215888)
(0.0047821 0.0842725 -0.996431)
(0.236783 -0.944272 0.228657)
(-0.00498215 0.0758157 -0.997109)
(0.991882 0.0505382 0.116685)
(0.956794 -0.187144 0.222535)
(0.0115933 -0.896734 -0.442419)
(-0.294171 -0.949753 0.10692)
(-0.290661 -0.950956 0.105826)
(-0.29428 -0.94969 0.107179)
(0.672753 -0.738065 -0.0516114)
(-0.290888 -0.950784 0.106742)
(0.672671 -0.738141 -0.0515974)
(-0.2801 -0.954171 0.105359)
(0.672778 -0.738042 -0.0516163)
)

// edgeNormals

154
(
2(101 5)
2(102 103)
2(104 105)
2(15 38)
2(49 89)
2(90 106)
2(91 107)
2(58 10)
2(108 109)
2(110 111)
2(112 113)
2(98 99)
2(114 115)
2(114 116)
2(117 118)
2(119 120)
2(121 122)
2(121 123)
2(124 125)
2(126 90)
2(127 128)
2(129 130)
2(131 132)
2(133 134)
2(135 136)
2(137 134)
2(138 139)
2(140 109)
2(141 142)
2(143 144)
2(145 146)
2(147 148)
2(149 150)
2(151 101)
2(152 22)
2(153 23)
2(154 88)
2(155 156)
2(157 158)
2(157 159)
2(160 161)
2(162 103)
2(158 163)
2(158 103)
2(104 164)
2(104 165)
2(166 76)
2(167 110)
2(168 169)
2(170 25)
2(171 51)
2(172 173)
2(174 175)
2(176 177)
2(178 179)
2(180 181)
2(182 107)
2(183 56)
2(89 106)
2(108 184)
2(113 185)
2(113 186)
2(187 188)
2(189 190)
2(191 192)
2(99 100)
2(2 111)
1(60)
1(61)
1(0)
1(0)
1(62)
1(63)
1(64)
1(4)
1(4)
1(65)
1(65)
1(66)
1(66)
1(67)
1(68)
1(69)
1(70)
1(71)
1(72)
1(73)
1(74)
1(75)
1(76)
1(76)
1(77)
1(77)
1(78)
1(79)
1(80)
1(80)
1(81)
1(82)
1(83)
1(84)
1(85)
1(12)
1(12)
1(13)
1(86)
1(86)
1(87)
1(87)
1(88)
1(22)
1(50)
1(50)
1(49)
1(89)
1(90)
1(91)
1(92)
1(92)
1(55)
1(93)
1(24)
1(94)
1(95)
1(96)
1(96)
1(7)
1(97)
1(37)
1(98)
1(99)
1(100)
3(0 1 2)
3(3 4 5)
3(6 7 8)
3(9 7 10)
3(11 12 13)
8(14 15 16 17 18 19 20 21)
3(22 23 24)
3(25 26 27)

11
(
15
28
29
30
31
32
33
34
35
36
37
)

4(38 39 28 40)
10(38 16 41 42 17 18 19 20 21 43)
7(39 40 44 45 46 47 48)
9(39 40 49 31 32 33 34 35 36)
4(26 50 27 51)
4(26 27 52 53)

12
(
28
16
44
45
17
46
18
47
19
20
48
21
)

3(41 42 43)
3(41 42 43)

11
(
44
45
46
47
48
31
32
33
34
35
36
)

3(52 53 54)
5(55 29 56 30 57)
3(55 58 59)
)

// featurePointNormals

37
(
4(114 115 116 131)
4(162 103 158 163)
5(90 106 124 125 126)
6(126 90 0 100 1 2)
8(110 111 167 2 0 68 81 1)
5(101 5 151 4 3)
6(102 103 129 130 157 158)
6(154 88 4 77 3 5)
4(108 109 140 184)
4(152 22 153 23)
3(152 22 85)
5(102 103 162 63 64)
4(160 161 71 95)
4(166 76 69 96)
3(166 76 74)
2(77 80)
6(170 25 171 51 50 26)
4(172 173 84 97)
5(176 177 7 6 8)
4(183 56 82 97)
6(58 10 85 24 7 9)
6(91 107 182 12 13 11)

11
(
183
56
55
14
15
16
28
29
31
37
44
)

7(15 38 13 14 16 41 42)
10(108 109 110 111 22 55 94 96 23 58)
4(25 26 52 54)
9(15 38 49 89 37 28 29 31 39)
7(38 39 28 16 41 42 44)
4(49 39 44 31)
5(50 93 26 51 52)
5(49 89 106 92 93)
3(90 106 89)
4(91 107 52 54)
5(58 10 55 29 56)
5(98 99 191 192 100)
2(98 99)
2(99 100)
)

// featurePointEdges

37
(
3(12 13 22)
3(41 42 43)
3(18 19 5)
5(19 132 69 115 131)
7(132 47 9 66 70 81 97)
4(133 33 0 75)
5(21 1 38 39 43)
5(133 36 74 91 109)
3(27 59 8)
4(34 35 138 121)
3(34 101 110)
4(1 41 72 73)
3(40 84 123)
5(46 82 90 124 125)
3(46 87 89)
4(91 92 95 96)
5(49 50 139 145 111)
3(51 100 127)
3(53 134 126)
3(57 98 127)
5(135 7 101 121 126)
6(56 136 6 102 104 117)
7(57 137 140 147 150 152 119)
5(137 3 142 149 104)
8(138 153 8 9 110 119 122 124)
3(139 146 151)
7(3 140 141 144 4 114 128)
5(141 142 143 147 148)
4(143 144 150 113)
4(145 146 112 120)
6(4 58 113 117 118 120)
4(58 5 114 115)
3(151 6 116)
3(152 153 7)
3(64 11 65)
3(11 129 130)
3(65 130 131)
)

// regionEdges

87
(
132
133
134
135
136
137
138
139
140
141
142
143
144
145
146
147
148
149
150
151
152
153
67
68
69
70
71
72
73
74
75
76
77
78
79
80
81
82
83
84
85
86
87
88
89
90
91
92
93
94
95
96
97
98
99
100
101
102
103
104
105
106
107
108
109
110
111
112
113
114
115
116
117
118
119
120
121
122
123
124
125
126
127
128
129
130
131
)



// ************************************************************************* //
