/*--------------------------------*- C++ -*----------------------------------*\
| =========                 |                                                 |
| \\      /  F ield         | OpenFOAM: The Open Source CFD Toolbox           |
|  \\    /   O peration     | Version:  2.2.x                                 |
|   \\  /    A nd           | Web:      www.OpenFOAM.org                      |
|    \\/     M anipulation  |                                                 |
\*---------------------------------------------------------------------------*/
FoamFile
{
    version     2.0;
    format      ascii;
    class       extendedFeatureEdgeMesh;
    location    "constant/extendedFeatureEdgeMesh";
    object      bed.extendedFeatureEdgeMesh;
}
// * * * * * * * * * * * * * * * * * * * * * * * * * * * * * * * * * * * * * //

// points

32
(
(2.299 3.67 -0.2)
(2.299 3.67 1.7)
(2.299 4.02 -0.2)
(2.299 4.02 -0.1)
(2.299 3.87 1.6)
(2.299 4.02 1.7)
(2.299 4.02 1.6)
(1.399 4.02 -0.2)
(1.299 4.02 -0.2)
(1.299 3.67 -0.2)
(2.199 4.02 -0.2)
(1.299 3.67 1.7)
(1.299 3.87 1.6)
(1.299 4.02 1.7)
(1.299 4.02 1.6)
(1.299 4.02 -0.1)
(2.199 4.02 1.7)
(1.399 4.02 1.7)
(2.199 4.02 1.6)
(1.399 4.02 1.6)
(2.199 4.02 -0.1)
(1.399 4.02 -0.1)
(2.299 3.87 -0.1)
(1.399 3.87 -0.2)
(2.199 3.87 -0.2)
(1.299 3.87 -0.1)
(1.399 3.87 1.7)
(2.199 3.87 1.7)
(2.199 3.87 1.6)
(1.399 3.87 1.6)
(1.399 3.87 -0.1)
(2.199 3.87 -0.1)
)

// edges

51
(
(1 0)
(0 2)
(2 3)
(3 22)
(5 1)
(22 4)
(6 5)
(4 6)
(8 7)
(7 23)
(0 9)
(9 8)
(23 24)
(24 10)
(10 2)
(9 11)
(11 13)
(13 14)
(14 12)
(12 25)
(15 8)
(25 15)
(11 1)
(27 26)
(16 27)
(5 16)
(17 13)
(26 17)
(6 18)
(18 16)
(28 18)
(19 14)
(17 19)
(29 19)
(10 20)
(20 3)
(31 20)
(15 21)
(21 7)
(30 21)
(28 29)
(12 4)
(29 4)
(12 29)
(28 4)
(29 26)
(27 28)
(30 25)
(22 31)
(23 30)
(31 24)
)

// concaveStart mixedStart nonFeatureStart
22 22 32
// internalStart flatStart openStart multipleStart
45 51 51 51
// normals

59
(
(1 0 0)
(0 -1 -0)
(1 0 0)
(0 0 -1)
(1 -0 0)
(0 1 -0)
(-0 0 1)
(1 -0 0)
(-0 0 1)
(1 0 0)
(0 1 -0)
(1 0 0)
(0 1 -0)
(0 0 -1)
(-0 -0 -1)
(0 1 0)
(1 0 0)
(0 0 -1)
(-0 0 -1)
(-1 0 0)
(0 0 -1)
(0 1 0)
(0 0 -1)
(-1 0 0)
(0 1 0)
(-1 0 0)
(0 -1 0)
(-1 0 0)
(0 0 1)
(-1 0 0)
(0 1 0)
(-0 0 -1)
(-1 -0 0)
(0 1 0)
(-1 0 0)
(0 0 1)
(0 0 1)
(-0 0 1)
(0 1 -0)
(-0 0 1)
(-1 -0 0)
(0 0 1)
(0 1 -0)
(1 -0 0)
(0 1 0)
(-0 0 -1)
(-1 0 0)
(1 0 0)
(0 0 -1)
(-1 -0 0)
(0 0 1)
(0 1 -0)
(-0 0 1)
(1 -0 0)
(0 1 0)
(0 0 0)
(0 1 -0)
(0 0 0)
(0 1 -0)
)

// edgeNormals

51
(
2(0 1)
2(2 3)
2(4 5)
2(4 6)
2(7 8)
2(9 10)
2(11 12)
2(11 13)
2(14 15)
2(14 16)
2(17 1)
2(18 19)
2(20 21)
2(22 23)
2(3 24)
2(25 26)
2(27 28)
2(29 30)
2(29 31)
2(32 33)
2(34 15)
2(34 35)
2(36 26)
2(37 38)
2(39 40)
2(8 12)
2(41 42)
2(41 43)
2(44 45)
2(44 46)
2(45 46)
2(30 31)
2(42 43)
2(47 48)
2(24 23)
2(5 6)
2(49 50)
2(51 52)
2(51 53)
2(52 53)
2(54 55)
2(10 57)
2(57 55)
2(57 48)
2(55 13)
2(54 47)
2(38 40)
2(33 35)
2(56 50)
2(21 16)
2(58 49)
)

// featurePointNormals

32
(
3(0 1 3)
3(0 1 8)
3(2 3 5)
3(4 5 6)
5(9 10 13 57 55)
3(7 8 12)
3(11 12 13)
3(14 15 16)
3(14 15 19)
3(17 1 19)
3(22 23 24)
3(25 26 28)
4(29 31 33 57)
3(27 28 30)
3(29 30 31)
3(34 15 35)
3(39 40 12)
3(41 42 43)
3(44 45 46)
3(30 31 43)
3(24 23 6)
3(51 52 53)
3(4 6 10)
3(14 16 21)
3(20 21 23)
3(32 33 35)
3(37 38 43)
3(37 38 40)
4(45 46 54 55)
5(47 48 54 55 57)
3(52 53 33)
3(49 50 56)
)

// featurePointEdges

32
(
3(0 1 10)
3(0 4 22)
3(1 2 14)
3(2 3 35)
5(5 7 41 42 44)
3(4 6 25)
3(6 7 28)
3(8 9 38)
3(8 11 20)
3(10 11 15)
3(13 14 34)
3(15 16 22)
4(18 19 41 43)
3(16 17 26)
3(17 18 31)
3(20 21 37)
3(24 25 29)
3(26 27 32)
3(28 29 30)
3(31 32 33)
3(34 35 36)
3(37 38 39)
3(3 5 48)
3(9 12 49)
3(12 13 50)
3(19 21 47)
3(23 27 45)
3(23 24 46)
4(40 46 44 30)
5(40 45 42 43 33)
3(47 49 39)
3(48 50 36)
)

// regionEdges
0()


// ************************************************************************* //
