/*--------------------------------*- C++ -*----------------------------------*\
| =========                 |                                                 |
| \\      /  F ield         | OpenFOAM: The Open Source CFD Toolbox           |
|  \\    /   O peration     | Version:  2.2.x                                 |
|   \\  /    A nd           | Web:      www.OpenFOAM.org                      |
|    \\/     M anipulation  |                                                 |
\*---------------------------------------------------------------------------*/
FoamFile
{
    version     2.0;
    format      ascii;
    class       extendedFeatureEdgeMesh;
    location    "constant/extendedFeatureEdgeMesh";
    object      chest_left.extendedFeatureEdgeMesh;
}
// * * * * * * * * * * * * * * * * * * * * * * * * * * * * * * * * * * * * * //

// points

292
(
(1.91067 3.46935 1.20357)
(1.79993 3.52736 1.41806)
(1.82371 3.48971 1.40585)
(1.84288 3.51267 1.40756)
(1.86673 3.43863 1.17717)
(1.90994 3.52267 1.0751)
(1.92778 3.55332 1.17661)
(1.93126 3.56097 1.2076)
(1.94219 3.5615 1.2982)
(1.94225 3.50411 1.33175)
(1.94227 3.5041 1.3318)
(1.94219 3.50413 1.33162)
(1.94219 3.50358 1.33351)
(1.90458 3.48235 1.33077)
(1.94229 3.50405 1.33203)
(1.94231 3.50409 1.33191)
(1.94219 3.50238 1.33932)
(1.94219 3.5031 1.33544)
(1.94219 3.50423 1.36243)
(1.842 3.51679 1.41274)
(1.8634 3.46978 1.33459)
(1.8 3.46035 1.32243)
(1.8 3.46133 1.32434)
(1.8 3.48227 1.41066)
(1.8 3.46004 1.32184)
(1.8 3.46528 1.33196)
(1.81383 3.48512 1.40706)
(1.82065 3.4876 1.40586)
(1.82647 3.49226 1.40613)
(1.83522 3.50428 1.40848)
(1.8 3.46265 1.32688)
(1.84404 3.50481 1.39726)
(1.91587 3.48125 1.26842)
(1.92072 3.49494 1.29927)
(1.91217 3.46798 1.28391)
(1.91384 3.48737 1.26003)
(1.8 3.44237 1.27906)
(1.91276 3.47151 1.20828)
(1.91242 3.47069 1.20696)
(1.91231 3.47042 1.20654)
(1.90913 3.46485 1.19887)
(1.91296 3.47204 1.20916)
(1.87142 3.44032 1.17744)
(1.87154 3.44015 1.17753)
(1.90907 3.4652 1.19902)
(1.89027 3.45119 1.18407)
(1.90405 3.45945 1.19245)
(1.90909 3.46481 1.19885)
(1.90911 3.46497 1.19892)
(1.86664 3.43881 1.17722)
(1.87548 3.44259 1.17817)
(1.8574 3.43518 1.17748)
(1.85793 3.43415 1.1773)
(1.85829 3.43345 1.17719)
(1.85723 3.43553 1.17755)
(1.86264 3.43644 1.17832)
(1.86308 3.42444 1.17711)
(1.9133 3.47302 1.21087)
(1.91371 3.47436 1.21339)
(1.86869 3.41469 1.17989)
(1.90777 3.46261 1.28919)
(1.91253 3.46843 1.28346)
(1.90909 3.46631 1.19982)
(1.90464 3.45932 1.19324)
(1.90434 3.4594 1.19283)
(1.9041 3.45944 1.19251)
(1.90418 3.45943 1.19261)
(1.86722 3.4384 1.17853)
(1.82817 3.4295 1.18328)
(1.89696 3.46462 1.06558)
(1.80045 3.4324 1.19325)
(1.80005 3.43561 1.23714)
(1.89249 3.45928 1.06624)
(1.80093 3.4234 1.06752)
(1.8631 3.43608 1.06859)
(1.82799 3.42423 1.06877)
(1.85398 3.43168 1.06886)
(1.87734 3.44527 1.06779)
(1.94219 3.53506 1.39432)
(1.851 3.53049 1.41958)
(1.94219 3.50321 1.33563)
(1.94219 3.50366 1.33366)
(1.90689 3.5423 1.07753)
(1.90716 3.54059 1.07732)
(1.90756 3.54266 1.0807)
(1.90776 3.54277 1.08165)
(1.90708 3.5424 1.07766)
(1.92057 3.54974 1.16241)
(1.90689 3.5423 1.07653)
(1.90991 3.5229 1.07511)
(1.79848 3.53249 1.07532)
(1.90803 3.53716 1.0772)
(1.90707 3.5424 1.07739)
(1.90673 3.54228 1.07753)
(1.91005 3.52287 1.07575)
(1.94221 3.50412 1.33166)
(1.94219 3.50385 1.33255)
(1.94219 3.50182 1.34713)
(1.94219 3.50389 1.33263)
(1.90993 3.52268 1.07506)
(1.9081 3.54294 1.08234)
(1.92412 3.49208 1.33039)
(1.9422 3.50409 1.33175)
(1.94229 3.50413 1.33175)
(1.94226 3.50414 1.3317)
(1.9423 3.50412 1.3318)
(1.92408 3.49203 1.33014)
(1.94223 3.50414 1.33166)
(1.86328 3.47015 1.33521)
(1.86316 3.47053 1.33584)
(1.8549 3.49387 1.37449)
(1.88427 3.47517 1.33299)
(1.86292 3.47129 1.3371)
(1.86243 3.4728 1.33962)
(1.86147 3.47584 1.34468)
(1.85948 3.48194 1.35477)
(1.8 3.46018 1.3221)
(1.83092 3.46361 1.33167)
(1.82289 3.46246 1.32981)
(1.81506 3.46148 1.32754)
(1.8 3.46011 1.32197)
(1.81729 3.4861 1.40631)
(1.8 3.4641 1.32968)
(1.8 3.46223 1.32606)
(1.89205 3.45193 1.29729)
(1.87389 3.44535 1.29915)
(1.91525 3.47464 1.27656)
(1.9395 3.50337 1.32876)
(1.92856 3.50028 1.31713)
(1.90686 3.46173 1.28999)
(1.89999 3.45638 1.29441)
(1.8 3.45921 1.31982)
(1.9127 3.47137 1.20806)
(1.91265 3.47124 1.20784)
(1.91259 3.4711 1.20762)
(1.91254 3.47097 1.2074)
(1.91322 3.47279 1.21045)
(1.91314 3.47255 1.21003)
(1.87128 3.44056 1.17742)
(1.87453 3.44201 1.17787)
(1.87352 3.44147 1.17764)
(1.88412 3.44864 1.29868)
(1.85758 3.43484 1.17741)
(1.88287 3.44706 1.18093)
(1.85732 3.43536 1.17751)
(1.91438 3.48168 1.23271)
(1.9159 3.48124 1.26845)
(1.91449 3.47974 1.22636)
(1.91433 3.4774 1.22004)
(1.8638 3.42315 1.17729)
(1.8645 3.42189 1.17752)
(1.91345 3.47348 1.21171)
(1.86592 3.4194 1.17813)
(1.85865 3.43275 1.1771)
(1.85938 3.43134 1.17697)
(1.86012 3.42993 1.17689)
(1.89351 3.45272 1.29681)
(1.90129 3.4573 1.2937)
(1.91536 3.47467 1.27655)
(1.80001 3.43985 1.26342)
(1.81449 3.42297 1.06828)
(1.80088 3.42713 1.13045)
(1.86011 3.43452 1.0687)
(1.86606 3.43774 1.06847)
(1.84896 3.52737 1.41804)
(1.84913 3.52763 1.41816)
(1.9144 3.47792 1.22145)
(1.93024 3.50096 1.31954)
(1.92239 3.49666 1.30485)
(1.91864 3.49196 1.28863)
(1.91961 3.49283 1.29272)
(1.91496 3.48934 1.27193)
(1.91419 3.48297 1.23778)
(1.92018 3.49418 1.29682)
(1.80044 3.43244 1.19397)
(1.80043 3.43248 1.19468)
(1.80041 3.43256 1.19611)
(1.93178 3.55436 0.0916016)
(1.93161 3.55431 0.0916016)
(1.93165 3.54566 0.0916016)
(1.93182 3.54692 0.0916016)
(1.94223 3.50412 1.3317)
(1.90705 3.54243 1.07739)
(1.90675 3.54227 1.07738)
(1.90984 3.52337 1.07517)
(1.90978 3.52474 1.07547)
(1.90658 3.54226 1.07753)
(1.90286 3.53779 1.07716)
(1.90686 3.54228 1.07753)
(1.90679 3.54229 1.07753)
(1.82443 3.50537 1.41493)
(1.91441 3.54087 1.14373)
(1.92389 3.53889 1.22926)
(1.91436 3.54088 1.14328)
(1.90912 3.54197 1.09598)
(1.908 3.54221 1.08591)
(1.90743 3.54232 1.0808)
(1.92387 3.53882 1.2295)
(1.83088 3.46375 1.3319)
(1.8298 3.48167 1.36777)
(1.84897 3.46791 1.33609)
(1.85104 3.46815 1.33595)
(1.91361 3.4846 1.31241)
(1.91377 3.48044 1.30245)
(1.9016 3.47116 1.31173)
(1.91074 3.46946 1.20378)
(1.91083 3.46953 1.204)
(1.87368 3.44117 1.17758)
(1.91072 3.46842 1.20284)
(1.90402 3.45946 1.19241)
(1.8736 3.44134 1.17762)
(1.91063 3.4692 1.20337)
(1.86217 3.4369 1.1776)
(1.86239 3.43673 1.17802)
(1.91066 3.46585 1.20275)
(1.90827 3.45811 1.20005)
(1.90571 3.45895 1.19489)
(1.89213 3.44878 1.18488)
(1.9052 3.45915 1.19406)
(1.89168 3.44935 1.18461)
(1.90916 3.46642 1.20003)
(1.90479 3.45928 1.19345)
(1.89075 3.45055 1.18421)
(1.90493 3.45924 1.19365)
(1.89122 3.44994 1.18439)
(1.90903 3.46558 1.19922)
(1.89032 3.45112 1.18409)
(1.8905 3.45088 1.18413)
(1.89038 3.45104 1.1841)
(1.90905 3.46613 1.19962)
(1.87493 3.43663 1.17753)
(1.87812 3.43235 1.1781)
(1.87179 3.43977 1.17769)
(1.867 3.43861 1.17815)
(1.87207 3.43934 1.17781)
(1.8671 3.43852 1.17836)
(1.87193 3.43956 1.17775)
(1.86987 3.43863 1.1785)
(1.87235 3.43887 1.17789)
(1.86683 3.43867 1.17764)
(1.86676 3.43865 1.17733)
(1.86516 3.43721 1.17881)
(1.86747 3.43808 1.1788)
(1.86927 3.4406 1.12388)
(1.9042 3.46644 1.16876)
(1.89602 3.46032 1.13167)
(1.84884 3.52711 1.41839)
(1.90708 3.5424 1.07759)
(1.90764 3.5427 1.08013)
(1.91035 3.54413 1.09313)
(1.91742 3.54786 1.127)
(1.94219 3.55032 1.29686)
(1.93433 3.55724 1.23931)
(1.94219 3.52153 1.3871)
(1.94219 3.51095 1.37608)
(1.8 3.46068 1.32307)
(1.80692 3.48357 1.40893)
(1.8 3.48248 1.38701)
(1.8 3.47032 1.34223)
(1.84723 3.46655 1.33427)
(1.8 3.47841 1.36384)
(1.83976 3.49582 1.38915)
(1.85531 3.46817 1.33478)
(1.82644 3.48081 1.36728)
(1.84336 3.50901 1.40301)
(1.84357 3.50867 1.4024)
(1.84425 3.50109 1.39216)
(1.91655 3.48398 1.28571)
(1.90875 3.47483 1.30613)
(1.91112 3.466 1.20427)
(1.87136 3.4404 1.17739)
(1.91192 3.46943 1.20596)
(1.87847 3.39991 1.1928)
(1.88209 3.3955 1.20167)
(1.8865 3.3939 1.22136)
(1.88744 3.39704 1.23106)
(1.8739 3.4064 1.18529)
(1.88474 3.39344 1.21131)
(1.89302 3.4477 1.18552)
(1.87557 3.43661 1.17729)
(1.87363 3.44004 1.17737)
(1.84619 3.42308 1.18098)
(1.90714 3.49192 1.06813)
(1.90755 3.49302 1.06823)
(1.83059 3.42435 1.18657)
(1.88768 3.45423 1.06683)
(1.87193 3.5346 1.40854)
(1.89468 3.53681 1.40105)
(1.91829 3.53695 1.39655)
(1.94219 3.511 1.31761)
(1.94219 3.52178 1.30644)
(1.94219 3.5353 1.29931)
)

// edges

383
(
(198 20)
(29 199)
(200 31)
(19 201)
(202 33)
(203 204)
(0 205)
(37 205)
(39 40)
(41 206)
(43 207)
(208 38)
(44 208)
(45 46)
(209 45)
(47 209)
(42 210)
(211 0)
(40 48)
(47 40)
(39 47)
(51 212)
(52 213)
(49 54)
(53 55)
(214 57)
(215 58)
(60 61)
(216 217)
(218 219)
(220 221)
(62 63)
(63 222)
(223 224)
(0 62)
(44 65)
(225 66)
(226 65)
(48 46)
(64 227)
(66 228)
(229 64)
(230 231)
(232 233)
(234 67)
(235 236)
(237 238)
(67 237)
(43 239)
(42 240)
(54 68)
(55 241)
(241 242)
(68 70)
(243 50)
(243 74)
(244 245)
(246 28)
(79 246)
(84 87)
(88 247)
(90 73)
(248 92)
(100 248)
(6 249)
(6 250)
(250 249)
(23 1)
(1 90)
(79 1)
(8 84)
(251 8)
(8 252)
(9 10)
(253 254)
(254 18)
(21 255)
(255 22)
(23 256)
(257 23)
(25 258)
(256 26)
(259 198)
(28 199)
(260 257)
(28 29)
(27 2)
(261 29)
(259 262)
(258 260)
(263 2)
(2 28)
(3 264)
(19 3)
(3 265)
(31 266)
(265 31)
(31 201)
(267 32)
(268 203)
(206 37)
(40 38)
(207 42)
(215 269)
(46 47)
(210 270)
(226 46)
(271 41)
(52 212)
(53 213)
(4 270)
(51 4)
(272 273)
(274 275)
(276 272)
(277 274)
(273 277)
(59 276)
(278 216)
(218 217)
(223 219)
(62 221)
(63 224)
(229 63)
(64 222)
(279 231)
(66 44)
(65 66)
(64 225)
(66 64)
(65 46)
(65 48)
(227 66)
(48 47)
(228 65)
(233 236)
(67 238)
(232 239)
(234 235)
(43 280)
(4 42)
(43 240)
(281 68)
(242 55)
(282 69)
(283 282)
(5 283)
(70 284)
(50 74)
(72 285)
(285 77)
(76 75)
(16 14)
(286 287)
(78 253)
(79 286)
(287 288)
(288 78)
(289 290)
(11 289)
(291 251)
(290 291)
(78 11)
(82 5)
(5 69)
(252 85)
(85 247)
(8 86)
(101 102)
(102 9)
(103 104)
(105 103)
(11 106)
(107 11)
(104 107)
(10 101)
(108 109)
(106 13)
(15 105)
(110 19)
(13 111)
(111 20)
(109 112)
(112 113)
(113 114)
(114 115)
(115 110)
(116 21)
(117 118)
(119 24)
(24 120)
(118 119)
(120 116)
(121 27)
(26 121)
(29 19)
(30 122)
(122 25)
(22 123)
(123 30)
(19 108)
(13 11)
(20 13)
(124 125)
(126 34)
(127 128)
(11 127)
(129 130)
(32 126)
(34 129)
(130 124)
(35 32)
(128 33)
(33 35)
(24 117)
(36 131)
(131 24)
(132 133)
(38 39)
(134 135)
(41 37)
(37 132)
(133 134)
(135 38)
(136 137)
(138 49)
(137 41)
(50 139)
(140 138)
(125 141)
(51 142)
(45 143)
(142 52)
(52 53)
(139 140)
(54 144)
(144 51)
(35 145)
(146 35)
(143 50)
(147 148)
(56 149)
(149 150)
(57 136)
(151 57)
(58 151)
(152 59)
(153 154)
(154 155)
(150 152)
(53 153)
(155 56)
(148 58)
(156 157)
(145 147)
(141 156)
(60 34)
(34 61)
(61 158)
(157 60)
(158 146)
(56 54)
(59 56)
(71 159)
(159 36)
(69 72)
(160 73)
(73 161)
(74 162)
(50 45)
(162 76)
(49 50)
(77 163)
(75 160)
(163 74)
(161 70)
(19 164)
(164 165)
(165 79)
(39 166)
(167 11)
(168 167)
(169 170)
(171 169)
(166 172)
(173 168)
(172 35)
(35 171)
(170 173)
(70 174)
(174 175)
(175 176)
(176 71)
(177 178)
(178 179)
(179 180)
(180 177)
(98 78)
(9 181)
(181 95)
(79 23)
(29 79)
(26 27)
(77 76)
(75 73)
(73 82)
(82 83)
(83 5)
(69 77)
(82 72)
(7 182)
(182 88)
(22 30)
(90 21)
(36 24)
(24 90)
(30 25)
(71 36)
(87 88)
(88 183)
(183 79)
(73 71)
(7 94)
(184 83)
(83 91)
(91 184)
(91 185)
(185 89)
(92 88)
(85 6)
(7 91)
(92 91)
(90 186)
(187 73)
(188 187)
(186 93)
(93 189)
(189 188)
(190 79)
(23 190)
(93 90)
(79 93)
(191 192)
(193 191)
(194 193)
(195 194)
(196 195)
(86 196)
(192 197)
(197 78)
(6 94)
(7 6)
(95 11)
(12 96)
(15 10)
(97 16)
(14 15)
(16 17)
(17 12)
(18 97)
(16 18)
(16 78)
(78 18)
(16 80)
(80 17)
(80 12)
(80 81)
(81 12)
(81 96)
(81 98)
(78 14)
(15 78)
(8 78)
(82 77)
(84 85)
(85 86)
(86 84)
(87 8)
(89 99)
(99 5)
(5 89)
(6 91)
(6 100)
)

// concaveStart mixedStart nonFeatureStart
2 5 94
// internalStart flatStart openStart multipleStart
71 168 168 350
// normals

423
(
(-0.985243 0.0884134 0.146558)
(0.650125 -0.751448 0.112531)
(-0.971895 -0.114762 0.205547)
(-0.993284 0.0656343 0.0952859)
(-0.676733 -0.693503 0.247156)
(-0.528577 0.752887 0.392133)
(-0.450807 0.813506 0.367398)
(0.795772 0.543098 -0.267938)
(-0.533855 0.814644 0.226612)
(-0.443852 0.863254 0.240391)
(-0.999772 0.0210135 0.00376833)
(-0.999772 0.0210135 0.00376833)
(-0.540354 0.789428 0.29124)
(-0.458597 0.848167 0.265145)
(0.805781 0.531104 -0.262002)
(-0.354251 0.932801 0.0662495)
(1 0 -0)
(1 0 -0)
(-0.547347 0.807506 0.219875)
(0.98839 -0.135338 0.0690602)
(0.98839 -0.135338 0.0690602)
(-0.469282 0.867938 0.162657)
(-0.943499 0.325704 0.0610389)
(-0.99993 0.0116171 0.00217712)
(-0.99993 0.0116171 0.00217712)
(-0.515534 0.831612 0.206512)
(-0.672607 0.718187 0.178346)
(-0.999939 0.0107233 0.00266289)
(-0.999939 0.0107233 0.00266289)
(-0.134667 0.978891 -0.153744)
(1 -0 0)
(1 -0 0)
(1 -0.000552264 0.000328179)
(0.999789 -0.0176462 0.0104862)
(1 0 0)
(-0.999791 0.0200103 0.00428776)
(-0.999791 0.0200103 0.00428776)
(1 -0.00027694 0.000178747)
(-0.999698 0.0241883 0.0043214)
(-0.999698 0.0241883 0.0043214)
(0.999999 -0.00150854 0.000816361)
(1 -0 -0)
(0.100417 0.959327 0.263832)
(-0.9097 0.400401 0.110117)
(-0.124196 0.136505 -0.982823)
(-0.234369 0.167525 -0.957605)
(-0.285036 0.181309 -0.941213)
(-0.429778 0.902861 -0.0115373)
(-0.456873 0.889522 -0.00434119)
(-0.429778 0.902861 -0.0115373)
(-0.683499 0.728399 0.0475817)
(-0.470721 0.882278 -0.00270266)
(-0.151269 -0.982445 0.10918)
(-0.485856 0.874037 0.00167418)
(-0.351621 0.935807 -0.0250487)
(-0.884402 -0.431376 0.178176)
(-0.990806 -0.121165 0.0601872)
(0.990806 0.121165 -0.0601872)
(-0.990806 -0.121165 0.0601872)
(-0.990806 -0.121165 0.0601872)
(-0.990806 -0.121165 0.0601872)
(-0.970681 -0.126013 0.204692)
(-0.961735 -0.165892 0.21805)
(-0.957833 -0.184465 0.220293)
(-0.447409 0.894315 -0.00502689)
(-0.953088 -0.206106 0.221684)
(-0.976055 0.100945 0.192681)
(-0.961659 0.208801 0.177803)
(-0.547944 0.795792 0.257823)
(-0.330934 0.86831 0.369487)
(-0.452663 0.83899 0.30198)
(-0.455984 0.841722 0.289107)
(-0.548815 0.83171 -0.0840269)
(-0.448904 0.825042 0.343207)
(-0.547185 0.834126 -0.0694435)
(-0.249904 0.808325 -0.533065)
(-0.444648 0.888245 -0.115364)
(-0.445112 0.693835 -0.566099)
(-0.34497 0.860561 -0.37474)
(-0.249901 0.809775 -0.530861)
(-0.247007 0.810242 -0.531503)
(-0.239711 0.811748 -0.532545)
(-0.228531 0.81436 -0.533471)
(-0.217895 0.815751 -0.535791)
(-0.23019 0.808066 -0.542256)
(0.0868682 0.886141 -0.455201)
(0.0105893 0.828587 -0.55976)
(0.091747 0.880363 -0.465342)
(0.0614342 0.822351 -0.565654)
(0.0850294 0.888685 -0.450565)
(-0.419422 0.893056 -0.162897)
(-0.299913 0.943497 -0.140945)
(-0.736646 0.538557 -0.409035)
(0.166502 0.876324 -0.452032)
(0.166357 0.876181 -0.452364)
(0.167273 0.875254 -0.453818)
(0.16759 0.874987 -0.454214)
(0.0509694 0.861908 -0.504496)
(-0.49529 0.860064 -0.122382)
(-0.27704 0.71176 -0.645482)
(-0.33558 0.773738 -0.537323)
(-0.954612 0.223016 -0.197433)
(-0.563228 0.758298 0.328265)
(-0.563229 0.758302 0.328255)
(-0.709034 0.593237 -0.381236)
(-0.998098 0.0244312 -0.0565913)
(-0.853043 0.398852 -0.336504)
(-0.552058 0.644556 -0.528942)
(-0.97238 -0.221633 0.0731859)
(-0.73668 0.664619 0.124836)
(-0.969577 0.207531 0.129811)
(0.0610548 0.860924 -0.505057)
(0.192596 0.906941 -0.374652)
(0.192602 0.906943 -0.374645)
(0.525028 0.661369 -0.535664)
(-0.48644 0.790544 -0.372044)
(0.513406 0.664107 -0.543485)
(0.449343 0.716821 -0.533159)
(0.506648 0.676245 -0.534791)
(0.525595 0.658892 -0.538156)
(0.549841 0.632657 -0.545363)
(-0.880145 0.465581 -0.0926252)
(0.0207764 -0.168194 0.985535)
(-0.897341 0.436489 -0.0652403)
(-0.198193 -0.177434 0.963969)
(-0.0498163 -0.115315 0.992079)
(-0.258644 0.710898 -0.654009)
(0.0356731 -0.167882 0.985161)
(-0.370052 -0.0436675 0.927984)
(0.0290036 -0.153254 0.987761)
(-0.0575614 -0.17476 0.982927)
(-0.142015 -0.160563 0.976755)
(0.0883461 -0.154276 0.98407)
(0.086506 -0.145528 0.985565)
(-0.961743 -0.271342 0.0377365)
(-0.234962 -0.197326 0.951764)
(-0.999609 0.0227877 0.0162152)
(-0.100702 0.0828119 0.991464)
(-0.0985607 0.12667 0.987036)
(-0.921193 0.386816 -0.0421545)
(-0.957992 0.28653 0.0123168)
(-0.949095 0.314444 -0.0185324)
(-0.183088 0.246319 0.951738)
(-0.179128 -0.186316 0.966022)
(-0.238716 -0.178914 0.954466)
(-0.122186 0.170935 0.977677)
(-0.12417 -0.187724 0.974342)
(-0.285782 -0.116353 0.951205)
(-0.975421 0.22016 -0.00913861)
(-0.575358 0.597541 -0.558488)
(-0.991883 -0.125438 0.0208193)
(-0.412045 0.66202 -0.626057)
(-0.227123 0.771229 0.594661)
(-0.956283 0.222807 -0.18942)
(-0.732135 0.505291 -0.456792)
(-0.998352 0.0146403 -0.0554804)
(0.175892 0.0537485 0.982941)
(0.1742 0.36116 0.916088)
(0.354894 0.923061 -0.148353)
(0.354851 0.92303 -0.148651)
(-0.765323 0.643372 0.0187917)
(0.0345212 0.997653 -0.0591392)
(-0.461987 0.886887 -0.000503898)
(-0.510875 0.859231 0.0270066)
(-0.420489 0.907236 -0.0105488)
(-0.392001 0.919876 -0.012765)
(-0.554366 0.832051 0.0192207)
(-0.0925266 0.995617 -0.0135937)
(-0.489653 0.871757 -0.0167119)
(0.0822129 0.99317 -0.0827925)
(-0.458256 0.620184 -0.636689)
(-0.458621 0.614605 -0.641816)
(-0.458394 0.617541 -0.639154)
(-0.946875 0.320359 -0.028227)
(-0.547723 0.764101 0.340807)
(-0.755286 0.616056 0.223646)
(-0.862051 0.49685 0.100045)
(-0.856418 0.504576 0.109319)
(-0.937245 0.329475 -0.114094)
(-0.86864 0.48753 0.0881936)
(-0.884017 0.455779 -0.103822)
(-0.8933 0.44936 0.00953615)
(-0.918694 0.394962 -0.0022755)
(0.382217 0.922903 -0.0464792)
(0.382599 0.922739 -0.0465966)
(0.386451 0.92107 -0.0478067)
(0.432324 0.899514 -0.0630166)
(0 -0 1)
(0 0 1)
(0.802405 0.535195 -0.264031)
(0.798462 0.539915 -0.266366)
(0.296545 -0.467707 0.832653)
(0.706207 -0.590719 0.390286)
(0.31924 -0.486059 0.813531)
(0.0445061 0.0443797 -0.998023)
(-0.686528 -0.0163261 -0.72692)
(-0.30424 0.180071 -0.935421)
(-0.942645 0.306776 0.131565)
(-0.973076 0.16878 0.156962)
(-0.999963 -0.00759254 0.00393822)
(-0.999963 -0.00760627 0.00393428)
(-0.999955 -0.00872679 0.00360498)
(-0.999963 -0.00761799 0.00393115)
(-0.999898 -0.0142275 0.0011716)
(-0.347459 0.937339 -0.0258444)
(-0.35159 0.935819 -0.0250393)
(-0.999747 -0.0222045 -0.00360557)
(0.657398 0.19329 -0.728332)
(-0.973211 -0.107057 0.203469)
(-0.657096 0.752116 0.0504645)
(-0.957837 -0.184458 0.220281)
(0.0139092 0.071594 -0.997337)
(0.0482277 0.0411457 -0.997989)
(0.00963196 0.0731956 -0.997271)
(0.00478556 0.145404 -0.989361)
(0.00405394 0.187261 -0.982302)
(-0.0194773 -0.161899 0.986615)
(-0.0194757 -0.161897 0.986615)
(-0.0904708 0.995706 0.0195917)
(-0.0904735 0.995706 0.0195907)
(-0.909701 0.400396 0.110119)
(-0.909499 0.400884 0.110018)
(-0.909694 0.400414 0.110115)
(-0.909736 0.400313 0.110132)
(-0.90966 0.400494 0.110103)
(-0.909718 0.400356 0.110125)
(-0.801288 0.589437 0.102476)
(-0.128374 0.888273 -0.441011)
(-0.195448 0.957054 0.214122)
(-0.76428 0.60155 -0.232407)
(-0.273137 0.855945 -0.439039)
(-0.133608 0.843822 -0.519725)
(-0.926106 0.285388 -0.24674)
(-0.947882 -0.307576 0.083165)
(-0.14273 0.828465 -0.541548)
(-0.918653 0.290166 -0.268105)
(-0.717331 0.617345 -0.322988)
(-0.636178 0.0652801 -0.768776)
(0.421543 0.739958 -0.524178)
(-0.941194 0.302849 0.149785)
(-0.925225 0.189458 0.32873)
(0.699875 -0.683882 0.206105)
(-0.850123 -0.241986 0.467689)
(-0.192864 0.367363 0.909862)
(0.0789665 -0.210004 0.974506)
(0.932844 -0.0532308 -0.356326)
(0.719701 0.437667 -0.53896)
(0.679793 0.390361 -0.620886)
(-0.643588 0.43625 0.628872)
(-0.459246 -0.125877 0.879345)
(-0.536532 0.842428 0.0494744)
(-0.789203 0.00803402 0.61408)
(-0.784977 0.609323 0.111967)
(-0.24861 0.371345 0.894592)
(0.0335032 -0.248841 0.967965)
(0.653729 0.531967 -0.538191)
(-0.194343 0.799258 -0.568698)
(0.750931 0.35125 -0.55922)
(0.0181117 0.384005 -0.923153)
(-0.936831 0.306457 0.168617)
(-0.334412 0.912261 0.236533)
(-0.488237 0.693477 0.529824)
(-0.329124 0.94399 -0.0236477)
(-0.453309 0.349237 0.820088)
(-0.950534 -0.00201107 0.310614)
(-0.921957 0.377971 -0.0844646)
(-0.935246 0.0233462 0.353229)
(-0.863256 0.38189 -0.330075)
(-0.589326 -0.00861237 0.807849)
(-0.721614 0.426569 0.545263)
(-0.547934 -0.0491344 0.835077)
(-0.705784 0.433637 0.560203)
(-0.825791 -0.0140176 0.563802)
(-0.846451 0.532262 -0.0147933)
(-0.818124 -0.0203558 0.574681)
(-0.351755 0.750976 -0.558841)
(-0.486452 -0.120517 0.865355)
(-0.670121 0.471097 0.57359)
(-0.518647 -0.0829597 0.850954)
(-0.689103 0.449907 0.568085)
(-0.938777 0.315596 0.138193)
(-0.793192 -0.0028783 0.608965)
(0.518479 0.404152 -0.753552)
(-0.798696 -0.0152285 0.601543)
(0.475327 0.44145 -0.761043)
(-0.651123 0.501024 0.570099)
(-0.439581 -0.165448 0.882834)
(-0.789415 0.00344521 0.61385)
(0.672108 0.214857 -0.708595)
(-0.461317 -0.14401 0.87547)
(-0.659666 0.487671 0.571855)
(-0.445955 -0.16003 0.880633)
(-0.654167 0.499849 0.567641)
(-0.809366 -0.0260543 0.586727)
(0.309555 0.559325 -0.768981)
(0.331673 0.361647 0.871323)
(-0.107463 0.0503033 0.992936)
(0.0184008 0.303544 0.95264)
(-0.213891 0.956856 0.196667)
(0.0995799 0.234134 0.967091)
(-0.0686921 0.807558 0.585774)
(-0.137148 0.888692 0.437513)
(0.0605812 0.27706 0.958941)
(-0.0828171 0.994818 0.058976)
(0.207963 0.229356 0.950867)
(-0.039773 0.611057 0.790587)
(-0.0823102 0.330527 0.9402)
(-0.299884 0.953974 -0.00177915)
(-0.160292 0.388888 0.907234)
(-0.335711 0.93939 -0.0695957)
(0.167961 0.120715 0.978375)
(-0.212953 0.975663 -0.0522776)
(-0.332144 0.893561 0.302042)
(-0.266134 0.285579 0.920661)
(-0.102775 0.287407 0.952279)
(0.323456 0.612273 0.721455)
(0.0728284 0.993597 -0.0863798)
(-0.99147 -0.0602752 0.115556)
(-0.952584 0.253488 0.168308)
(-0.715034 0.697783 0.0427112)
(0.707252 -0.590599 0.388571)
(0.361961 -0.507443 0.781975)
(0.36158 -0.507381 0.782192)
(-0.640195 0.76663 0.0492867)
(-0.447286 0.894376 -0.00510235)
(-0.59527 0.802722 0.0359289)
(-0.9267 -0.299876 0.226498)
(-0.999989 -0.00215833 0.0042124)
(-0.0615152 0.997991 0.0151871)
(-0.0615186 0.99799 0.0151863)
(-0.99024 -0.0165396 0.138385)
(1 0 0)
(-0.991251 0.00946733 0.131648)
(-0.454098 0.842347 0.290254)
(0.803864 0.533432 -0.263158)
(0.0549876 0.720141 -0.691645)
(1 0 0)
(-0.109442 0.891729 -0.439138)
(0.0875794 0.884805 -0.457658)
(0.110351 0.882618 -0.456955)
(-0.999963 -0.0076017 0.0039356)
(-0.183159 0.983046 0.00860204)
(-0.999483 -0.0321507 -0.000281331)
(0.178403 0.883015 -0.434116)
(-0.999962 -0.00786472 0.00386653)
(-0.213537 0.976816 0.0152656)
(0.327885 -0.491314 0.806908)
(-0.0811332 0.87567 -0.476046)
(-0.201856 0.93947 -0.276859)
(-0.0556687 0.983387 -0.172772)
(-0.999891 -0.0145155 0.00255025)
(-0.558996 0.807889 -0.186652)
(0.348993 -0.50023 0.792448)
(-0.195724 0.980604 -0.0104213)
(-0.137701 0.847495 -0.512631)
(0.112637 0.930663 -0.348107)
(-0.99995 -0.00938828 0.00351161)
(-0.650568 0.72858 -0.214316)
(-0.15558 0.960029 -0.232679)
(0.410423 -0.525462 0.745281)
(-0.0705129 0.774361 -0.628802)
(-0.595939 0.59436 -0.539994)
(-0.99095 -0.130392 -0.0318787)
(-0.556262 0.660113 -0.5048)
(-0.243819 0.764421 -0.596835)
(-0.96877 0.147865 -0.19905)
(-0.953228 0.302081 -0.0101256)
(-0.799277 0.533827 -0.276016)
(-0.901407 0.100746 0.421088)
(-0.0234718 -0.190988 0.981312)
(-0.861167 -0.220842 0.457843)
(-0.510707 0.454492 0.729805)
(0.0435274 -0.233865 0.971294)
(-0.198373 0.406368 0.891915)
(-0.34766 0.935236 -0.0668277)
(-0.557827 0.629638 0.540726)
(0.151138 0.908571 0.38943)
(-0.637553 0.748806 -0.181152)
(0.0375648 0.949498 -0.311516)
(-0.443073 0.52704 0.7252)
(0.164897 0.793369 0.585982)
(-0.661577 0.745394 0.0818806)
(0.0869521 0.994352 -0.060852)
(-0.634367 0.701718 0.3243)
(0.127519 0.976439 0.174087)
(-0.297933 0.383184 0.874303)
(0.17434 0.612799 0.770768)
(-0.749628 0.416422 0.514441)
(-0.704992 0.426551 0.566604)
(-0.688389 0.442226 0.57494)
(-0.207178 0.0596064 0.976486)
(0.0693029 -0.124612 0.989782)
(0.0929925 0.443531 0.891422)
(0.310749 0.61072 0.728325)
(-0.247984 0.488368 0.83666)
(-0.93745 0.34492 0.0470911)
(-0.415855 0.237001 -0.878006)
(-0.936967 0.346167 0.0475569)
(-0.40769 0.237117 -0.881796)
(-0.98765 0.0447916 0.150138)
(0.28716 0.945076 0.156109)
(-0.723111 0.690594 0.0137824)
(-0.654007 0.75626 0.018603)
(-0.275277 0.961017 -0.0258618)
(-0.0218987 0.0885913 -0.995827)
(-0.298621 0.622337 -0.723548)
(-0.0209753 0.974318 0.224198)
(0.0302351 0.470696 -0.881777)
(-0.0999912 0.979453 0.175138)
(-0.155561 0.584622 -0.796252)
(0.0420735 0.96693 0.251549)
(-0.0306505 0.575156 -0.817469)
(-0.723976 0.496416 0.478988)
(1 0 0)
(-0.601833 0.717067 0.351586)
(1 0 0)
(-0.956375 0.0470723 0.288324)
(-0.862608 0.235725 0.447595)
(1 0 0)
(0.104682 0.138209 -0.984855)
(-0.482786 0.875738 0.000958988)
(-0.938031 0.321835 0.128528)
(-0.97985 0.129669 0.15192)
)

// edgeNormals

383
(
2(227 228)
2(229 230)
2(231 232)
2(233 234)
2(235 109)
2(236 237)
2(238 239)
2(240 118)
2(115 241)
2(242 117)
2(243 244)
2(245 246)
2(245 247)
2(248 249)
2(248 250)
2(251 252)
2(253 254)
2(255 256)
2(257 258)
2(241 258)
2(241 259)
2(260 127)
2(261 130)
2(132 262)
2(263 146)
2(139 264)
2(265 266)
2(267 152)
2(268 269)
2(270 271)
2(272 273)
2(274 275)
2(276 277)
2(278 279)
2(280 256)
2(281 282)
2(283 284)
2(285 286)
2(287 288)
2(289 290)
2(291 292)
2(293 294)
2(295 296)
2(297 298)
2(299 300)
2(301 302)
2(303 304)
2(303 305)
2(306 307)
2(308 309)
2(310 311)
2(312 313)
2(312 314)
2(315 316)
2(163 317)
2(317 168)
2(318 319)
2(320 321)
2(192 322)
2(48 55)
2(198 209)
2(206 211)
2(323 210)
2(324 66)
2(65 325)
2(325 67)
2(325 326)
2(327 217)
2(327 328)
2(216 329)
2(52 55)
2(330 331)
2(332 53)
2(333 334)
2(335 336)
2(337 34)
2(338 200)
2(339 340)
2(341 191)
2(341 342)
2(343 344)
2(345 346)
2(347 228)
2(348 229)
2(349 350)
2(229 320)
2(351 352)
2(92 230)
2(353 354)
2(355 356)
2(357 358)
2(357 359)
2(360 361)
2(360 233)
2(361 362)
2(363 232)
2(364 365)
2(231 365)
2(366 108)
2(367 237)
2(240 117)
2(115 257)
2(243 254)
2(368 265)
2(251 288)
2(253 369)
2(249 285)
2(370 123)
2(129 261)
2(130 371)
2(372 373)
2(133 374)
2(375 376)
2(377 378)
2(379 380)
2(381 382)
2(383 384)
2(385 386)
2(268 387)
2(269 270)
2(388 278)
2(273 274)
2(389 276)
2(275 293)
2(277 289)
2(390 295)
2(281 284)
2(281 292)
2(283 294)
2(283 290)
2(285 287)
2(287 282)
2(291 290)
2(288 258)
2(286 292)
2(297 301)
2(299 303)
2(298 306)
2(300 302)
2(391 392)
2(373 309)
2(307 308)
2(393 310)
2(312 394)
2(395 396)
2(397 398)
2(399 398)
2(315 400)
2(162 317)
2(401 196)
2(402 45)
2(403 404)
2(22 33)
2(405 406)
2(407 336)
2(172 408)
2(409 410)
2(411 42)
2(412 413)
2(414 415)
2(416 331)
2(417 418)
2(415 7)
2(419 195)
2(419 396)
2(420 421)
2(50 422)
2(225 52)
1(68)
1(69)
1(70)
1(71)
1(72)
1(6)
1(73)
1(74)
1(75)
1(76)
1(13)
1(77)
1(78)
1(79)
1(80)
1(81)
1(82)
1(83)
1(84)
1(85)
1(86)
1(87)
1(87)
1(88)
1(89)
1(90)
1(91)
1(92)
1(93)
1(94)
1(95)
1(96)
1(97)
1(98)
1(99)
1(100)
1(101)
1(102)
1(103)
1(104)
1(105)
1(106)
1(107)
1(108)
1(109)
1(110)
1(111)
1(112)
1(113)
1(114)
1(115)
1(116)
1(117)
1(118)
1(119)
1(120)
1(121)
1(122)
1(123)
1(124)
1(125)
1(126)
1(127)
1(128)
1(129)
1(130)
1(131)
1(132)
1(133)
1(134)
1(134)
1(135)
1(136)
1(137)
1(138)
1(139)
1(140)
1(141)
1(142)
1(143)
1(144)
1(145)
1(146)
1(147)
1(148)
1(149)
1(150)
1(151)
1(152)
1(152)
1(153)
1(154)
1(155)
1(156)
1(157)
1(158)
1(159)
1(160)
1(161)
1(161)
1(162)
1(163)
1(164)
1(165)
1(166)
1(167)
1(168)
1(169)
1(170)
1(171)
1(172)
1(173)
1(174)
1(175)
1(176)
1(177)
1(178)
1(179)
1(180)
1(181)
1(182)
1(183)
1(184)
1(185)
1(186)
1(187)
1(187)
1(188)
1(188)
1(40)
1(189)
1(190)
1(191)
1(192)
1(193)
1(44)
1(194)
1(194)
1(195)
1(195)
1(46)
1(196)
1(197)
1(198)
1(199)
1(200)
1(201)
1(201)
1(202)
1(203)
1(204)
1(204)
1(205)
1(206)
1(1)
1(207)
1(207)
1(207)
1(62)
1(208)
1(209)
1(64)
1(4)
1(210)
1(211)
1(212)
1(213)
1(214)
1(215)
1(215)
1(216)
1(217)
1(218)
1(219)
1(220)
1(221)
1(222)
1(223)
1(224)
1(225)
1(226)
1(226)
3(0 1 2)
3(3 1 4)
3(5 6 7)
4(8 9 10 11)
3(12 13 14)
3(15 16 17)
3(18 19 20)
4(21 22 23 24)
4(25 26 27 28)
3(29 16 17)
4(16 30 17 31)
4(30 32 31 33)
3(30 31 34)
3(32 23 24)
4(23 24 27 28)
4(27 35 28 36)
3(35 36 37)
4(35 36 10 11)
4(10 38 11 39)
3(38 39 40)
3(19 20 33)
3(19 20 14)
3(41 42 43)
3(44 45 46)
3(47 48 49)
4(47 50 51 49)
3(47 52 49)
3(53 54 55)
5(56 57 58 59 60)
5(56 57 58 59 60)
6(56 57 58 59 60 61)
3(62 4 63)
4(64 65 66 67)
)

// featurePointNormals

94
(
5(238 239 255 256 280)
3(327 217 328)
5(351 352 357 358 359)
4(360 361 233 362)
5(372 373 133 374 309)
8(399 398 419 195 396 56 57 61)

12
(
65
325
67
64
0
1
2
3
4
62
63
66
)

4(197 1 4 3)
9(52 55 330 331 332 53 225 42 54)
4(333 334 69 189)
6(333 334 74 12 13 14)
9(414 415 7 72 6 98 103 174 5)
6(8 9 10 25 26 27)
4(76 78 98 99)
4(22 33 18 19)
5(13 12 14 18 19)
6(22 33 15 16 21 23)
5(21 22 23 25 26)
3(337 34 29)
7(233 234 360 77 92 97 170)
4(227 228 79 99)
3(338 200 85)
3(339 340 95)
5(327 217 341 191 342)
4(87 111 113 201)
3(343 344 94)
4(345 346 91 193)
4(351 352 90 193)
6(320 321 348 229 357 359)
5(229 230 320 92 192)
3(93 96 199)
5(231 232 363 364 365)
3(366 108 105)
3(235 109 110)
3(101 106 152)
5(108 110 134 180 181)
4(112 159 201 203)
3(240 118 117)
5(245 246 115 257 120)
4(115 241 259 173)
4(115 241 257 258)
4(242 117 370 123)
6(253 254 308 309 243 373)
7(243 244 306 307 391 392 308)
5(245 247 281 282 284)
5(248 249 250 128 163)
6(248 249 287 288 251 285)
6(251 252 241 258 259 288)
5(257 258 287 288 282)
4(132 262 122 165)
6(163 317 162 124 135 165)
4(260 127 133 374)
3(261 130 129)
4(263 146 130 371)
5(132 262 310 311 156)
5(263 146 312 313 394)
4(137 147 156 157)
3(139 264 140)
4(265 266 141 148)
4(385 386 142 157)
3(267 152 154)
3(267 152 153)
5(274 275 280 256 273)
6(274 275 276 277 389 293)
6(289 290 293 294 277 283)
6(281 282 285 286 292 287)
6(283 284 291 292 281 290)
4(299 300 303 305)
5(310 311 315 316 393)
5(395 396 419 160 46)
5(315 316 400 169 183)
4(158 186 203 206)
3(401 196 160)
5(206 211 161 194 212)
3(317 168 162)
4(403 404 167 194)
4(403 404 164 44)
5(402 45 166 44 46)
10(407 336 411 42 7 226 33 19 14 43)
9(192 322 216 329 172 408 191 205 219)
3(32 23 35)
3(35 37 38)
7(419 195 194 196 44 45 46)
2(195 207)
4(48 55 52 47)
8(420 421 50 422 64 47 48 51)
5(225 52 47 50 51)
5(48 55 204 53 54)
3(198 209 204)
4(208 56 57 61)
6(206 211 327 328 200 218)