/*--------------------------------*- C++ -*----------------------------------*\
| =========                 |                                                 |
| \\      /  F ield         | OpenFOAM: The Open Source CFD Toolbox           |
|  \\    /   O peration     | Version:  2.2.x                                 |
|   \\  /    A nd           | Web:      www.OpenFOAM.org                      |
|    \\/     M anipulation  |                                                 |
\*---------------------------------------------------------------------------*/
FoamFile
{
    version     2.0;
    format      ascii;
    class       extendedFeatureEdgeMesh;
    location    "constant/extendedFeatureEdgeMesh";
    object      chest_right.extendedFeatureEdgeMesh;
}
// * * * * * * * * * * * * * * * * * * * * * * * * * * * * * * * * * * * * * //

// points

316
(
(1.68917 3.46953 1.204)
(1.68933 3.46935 1.20357)
(1.68413 3.48125 1.26842)
(1.72864 3.4404 1.17739)
(1.75862 3.49125 1.37951)
(1.76581 3.49355 1.39266)
(1.69542 3.48235 1.33077)
(1.7366 3.46978 1.33459)
(1.67928 3.49494 1.29927)
(1.65781 3.50413 1.33162)
(1.68616 3.48737 1.26003)
(1.8 3.45921 1.31982)
(1.8 3.44237 1.27906)
(1.8 3.46004 1.32184)
(1.73533 3.53998 1.41672)
(1.72807 3.5346 1.40854)
(1.758 3.51679 1.41274)
(1.65781 3.51105 1.31752)
(1.65781 3.53502 1.29941)
(1.65781 3.55032 1.29686)
(1.68769 3.47042 1.20654)
(1.65781 3.50415 1.33157)
(1.8 3.46011 1.32197)
(1.8 3.46018 1.3221)
(1.79994 3.46926 1.34293)
(1.8 3.46035 1.32243)
(1.8 3.46211 1.32647)
(1.8 3.46387 1.33052)
(1.8 3.47841 1.36384)
(1.79953 3.47701 1.35907)
(1.7702 3.48167 1.36777)
(1.76958 3.4685 1.34044)
(1.78083 3.47972 1.36651)
(1.65781 3.53512 1.39434)
(1.6959 3.45944 1.19251)
(1.69595 3.45945 1.19245)
(1.72858 3.44032 1.17744)
(1.72846 3.44015 1.17753)
(1.70983 3.45109 1.18398)
(1.69561 3.45978 1.19276)
(1.6906 3.46532 1.19943)
(1.69075 3.46506 1.19907)
(1.74276 3.43552 1.17756)
(1.73327 3.43863 1.17717)
(1.72521 3.44206 1.17785)
(1.70674 3.42431 1.26706)
(1.73736 3.43644 1.17832)
(1.73692 3.42444 1.17711)
(1.6881 3.44843 1.26197)
(1.69091 3.46631 1.19982)
(1.69536 3.45932 1.19324)
(1.69566 3.4594 1.19283)
(1.69582 3.45943 1.19261)
(1.73278 3.4384 1.17853)
(1.7719 3.4294 1.18335)
(1.74277 3.43553 1.17755)
(1.8 3.43806 1.25825)
(1.80037 3.43273 1.19897)
(1.80041 3.43256 1.19611)
(1.80005 3.43561 1.23714)
(1.80045 3.4324 1.19325)
(1.68997 3.5227 1.07468)
(1.69006 3.52267 1.0741)
(1.70304 3.46462 1.06558)
(1.69245 3.49302 1.06823)
(1.73593 3.43786 1.17722)
(1.80093 3.4234 1.06752)
(1.65781 3.50311 1.33539)
(1.65781 3.50386 1.33252)
(1.65781 3.50239 1.33924)
(1.73672 3.47015 1.33521)
(1.8 3.48227 1.41066)
(1.75712 3.51267 1.40756)
(1.78617 3.48512 1.40706)
(1.75596 3.50481 1.39726)
(1.76478 3.50428 1.40848)
(1.77935 3.4876 1.40586)
(1.69007 3.52268 1.07506)
(1.79848 3.53249 1.07532)
(1.8 3.46 1.32163)
(1.8 3.45992 1.32112)
(1.8 3.46006 1.32178)
(1.65781 3.53498 1.39406)
(1.65781 3.51604 1.3115)
(1.65781 3.52326 1.30537)
(1.65781 3.53389 1.30001)
(1.65781 3.53152 1.30077)
(1.65781 3.53515 1.39411)
(1.65781 3.5111 1.31767)
(1.80001 3.43985 1.26342)
(1.8 3.45987 1.32133)
(1.8 3.45995 1.32153)
(1.8 3.4599 1.32119)
(1.8 3.45988 1.32128)
(1.8 3.4641 1.32968)
(1.8 3.46528 1.33196)
(1.8 3.46223 1.32606)
(1.8 3.46265 1.32688)
(1.8 3.46068 1.32307)
(1.8 3.46133 1.32434)
(1.79993 3.52736 1.41806)
(1.8 3.46002 1.32168)
(1.8 3.47032 1.34223)
(1.74193 3.56455 1.42683)
(1.74189 3.56453 1.42683)
(1.7419 3.56457 1.42684)
(1.67144 3.50028 1.31713)
(1.76908 3.46361 1.33167)
(1.68504 3.48934 1.27193)
(1.65781 3.52164 1.30655)
(1.68136 3.49196 1.28863)
(1.67761 3.49666 1.30485)
(1.67982 3.49418 1.29682)
(1.66976 3.50096 1.31954)
(1.6856 3.47792 1.22145)
(1.68039 3.49283 1.29272)
(1.68581 3.48297 1.23778)
(1.7339 3.4386 1.17722)
(1.68574 3.47681 1.21872)
(1.80018 3.43386 1.21587)
(1.80024 3.43347 1.21036)
(1.80007 3.43514 1.23184)
(1.8001 3.4347 1.22655)
(1.8003 3.43309 1.2047)
(1.69286 3.49193 1.06813)
(1.76842 3.42969 1.18239)
(1.72799 3.44084 1.17747)
(1.78473 3.42953 1.18731)
(1.69038 3.46559 1.19975)
(1.72085 3.44486 1.1795)
(1.72426 3.44266 1.17817)
(1.69452 3.46075 1.19387)
(1.70686 3.45266 1.18536)
(1.71573 3.47517 1.33299)
(1.67592 3.49203 1.33014)
(1.74052 3.48194 1.35477)
(1.73853 3.47584 1.34468)
(1.73684 3.47053 1.33584)
(1.73757 3.4728 1.33962)
(1.7451 3.49387 1.37449)
(1.73708 3.47129 1.3371)
(1.79308 3.48357 1.40893)
(1.78494 3.46148 1.32754)
(1.77711 3.46246 1.32981)
(1.7827 3.4861 1.40631)
(1.93178 3.55436 0.0916016)
(1.93161 3.55431 0.0916016)
(1.93165 3.54566 0.0916016)
(1.93182 3.54692 0.0916016)
(1.65781 3.50271 1.33753)
(1.65781 3.50252 1.33948)
(1.65781 3.50293 1.33638)
(1.65781 3.53503 1.39407)
(1.65781 3.51077 1.31809)
(1.65781 3.50556 1.3276)
(1.65781 3.51007 1.31897)
(1.65781 3.50275 1.33712)
(1.65781 3.5349 1.39403)
(1.65781 3.51954 1.36281)
(1.65781 3.53502 1.29965)
(1.65781 3.53486 1.39353)
(1.69001 3.5227 1.07468)
(1.69009 3.5227 1.07468)
(1.69014 3.52271 1.07468)
(1.74158 3.56231 1.42665)
(1.74137 3.56001 1.42642)
(1.7416 3.56229 1.42664)
(1.74172 3.56344 1.42675)
(1.74246 3.54594 1.42435)
(1.68639 3.4846 1.31241)
(1.6984 3.47116 1.31173)
(1.68623 3.48044 1.30245)
(1.73127 3.45736 1.31658)
(1.7984 3.46125 1.32477)
(1.7846 3.47951 1.36621)
(1.79225 3.47912 1.36537)
(1.79863 3.47351 1.34998)
(1.79907 3.47536 1.35445)
(1.69089 3.46497 1.19892)
(1.72614 3.44084 1.17749)
(1.72632 3.44117 1.17758)
(1.68475 3.47464 1.27656)
(1.68928 3.46842 1.20284)
(1.68847 3.46967 1.20483)
(1.71626 3.44546 1.18118)
(1.70968 3.45112 1.18409)
(1.72445 3.44246 1.17816)
(1.7254 3.44188 1.17786)
(1.70795 3.45193 1.29729)
(1.69314 3.46173 1.28999)
(1.68864 3.46955 1.20495)
(1.68893 3.46959 1.20447)
(1.73131 3.41469 1.17989)
(1.68926 3.46946 1.20378)
(1.68937 3.4692 1.20337)
(1.73708 3.43604 1.17853)
(1.69429 3.45895 1.19489)
(1.70787 3.44878 1.18488)
(1.6948 3.45915 1.19406)
(1.70832 3.44935 1.18461)
(1.72188 3.43235 1.1781)
(1.72508 3.43663 1.17753)
(1.69095 3.46613 1.19962)
(1.70925 3.45055 1.18421)
(1.70949 3.45088 1.18413)
(1.70962 3.45104 1.1841)
(1.69097 3.46558 1.19922)
(1.69521 3.45928 1.19345)
(1.69084 3.46642 1.20003)
(1.69093 3.4652 1.19902)
(1.69507 3.45924 1.19365)
(1.70878 3.44994 1.18439)
(1.73013 3.43863 1.1785)
(1.73484 3.43721 1.17881)
(1.72765 3.43887 1.17789)
(1.72793 3.43934 1.17781)
(1.73253 3.43808 1.1788)
(1.7329 3.43852 1.17836)
(1.72807 3.43956 1.17775)
(1.73317 3.43867 1.17764)
(1.733 3.43861 1.17815)
(1.72821 3.43977 1.17769)
(1.73324 3.43865 1.17733)
(1.77024 3.42437 1.18672)
(1.77137 3.4268 1.18493)
(1.78578 3.42939 1.18825)
(1.78501 3.46152 1.32759)
(1.77713 3.48012 1.36684)
(1.76912 3.46375 1.3319)
(1.79753 3.48015 1.36999)
(1.79816 3.46049 1.32323)
(1.78493 3.4618 1.32813)
(1.75103 3.46791 1.33609)
(1.74896 3.46815 1.33595)
(1.79907 3.47586 1.3558)
(1.79627 3.47045 1.34379)
(1.67724 3.50049 1.19727)
(1.68345 3.48398 1.28571)
(1.70001 3.45638 1.29441)
(1.69125 3.47483 1.30613)
(1.75793 3.51683 1.41273)
(1.66556 3.54636 1.24091)
(1.67273 3.53095 1.18663)
(1.79829 3.46133 1.32498)
(1.70532 3.53681 1.40105)
(1.65781 3.52153 1.3871)
(1.7264 3.44134 1.17762)
(1.7258 3.44168 1.17776)
(1.68808 3.46943 1.20596)
(1.68855 3.46766 1.20456)
(1.72153 3.39991 1.1928)
(1.72609 3.4064 1.18529)
(1.71256 3.39704 1.23106)
(1.7135 3.3939 1.22136)
(1.71526 3.39344 1.21131)
(1.73238 3.42683 1.17737)
(1.72937 3.42652 1.17742)
(1.73796 3.43694 1.17721)
(1.71791 3.3955 1.20167)
(1.71745 3.41253 1.18612)
(1.71306 3.40662 1.19372)
(1.70956 3.40261 1.20261)
(1.70694 3.40072 1.2122)
(1.706 3.42485 1.26703)
(1.70417 3.40419 1.23181)
(1.69846 3.43171 1.26606)
(1.70515 3.4012 1.22217)
(1.69261 3.43975 1.26451)
(1.68503 3.4577 1.25856)
(1.70698 3.4477 1.18552)
(1.72443 3.43661 1.17729)
(1.72637 3.44004 1.17737)
(1.75621 3.4272 1.18017)
(1.76748 3.41998 1.19096)
(1.80043 3.43248 1.19468)
(1.80044 3.43244 1.19397)
(1.78586 3.42951 1.18798)
(1.80088 3.42713 1.13045)
(1.78716 3.42328 1.06853)
(1.71281 3.45446 1.06708)
(1.70777 3.45939 1.06637)
(1.74735 3.43231 1.06941)
(1.74115 3.43512 1.06924)
(1.77353 3.42476 1.06918)
(1.73509 3.43829 1.06899)
(1.72352 3.44568 1.06821)
(1.7381 3.43666 1.06913)
(1.65781 3.50359 1.33348)
(1.65781 3.504 1.33204)
(1.65781 3.51081 1.37587)
(1.65781 3.50407 1.3318)
(1.65781 3.50182 1.34685)
(1.65781 3.50182 1.34698)
(1.65781 3.50413 1.36211)
(1.8 3.48248 1.38701)
(1.76506 3.49684 1.39789)
(1.76471 3.50042 1.40317)
(1.79264 3.46072 1.32491)
(1.75676 3.50304 1.39582)
(1.75643 3.50867 1.4024)
(1.75277 3.46655 1.33427)
(1.76338 3.48167 1.36416)
(1.76024 3.49582 1.38915)
(1.79253 3.4832 1.38696)
(1.78878 3.46129 1.32669)
(1.74469 3.46817 1.33478)
(1.77353 3.49226 1.40613)
(1.77629 3.48971 1.40585)
(1.75575 3.50109 1.39216)
(1.75581 3.49751 1.38711)
(1.75677 3.49082 1.37719)
(1.75616 3.49409 1.38211)
(1.76689 3.49054 1.38749)
(1.65781 3.52057 1.30766)
(1.65781 3.51208 1.31645)
(1.65781 3.52228 1.30621)
)

// edges

416
(
(169 8)
(170 171)
(172 7)
(24 25)
(173 29)
(29 28)
(174 175)
(176 177)
(177 29)
(15 16)
(35 178)
(179 37)
(36 180)
(181 10)
(182 41)
(43 42)
(20 183)
(184 185)
(186 187)
(188 189)
(190 191)
(192 45)
(183 0)
(0 193)
(1 194)
(193 1)
(191 0)
(45 10)
(190 20)
(42 46)
(46 195)
(48 45)
(196 197)
(198 199)
(200 201)
(49 50)
(202 51)
(203 50)
(49 1)
(51 204)
(52 205)
(34 185)
(206 52)
(207 208)
(209 34)
(210 211)
(53 212)
(46 213)
(212 214)
(53 215)
(213 216)
(217 218)
(219 37)
(220 221)
(222 36)
(223 57)
(58 224)
(225 54)
(65 55)
(226 13)
(28 32)
(227 28)
(7 228)
(175 28)
(28 229)
(230 231)
(232 74)
(233 72)
(30 75)
(31 16)
(234 235)
(29 234)
(77 236)
(101 79)
(87 19)
(14 19)
(66 78)
(71 100)
(100 78)
(313 314)
(314 83)
(83 313)
(85 315)
(315 84)
(86 85)
(237 2)
(2 10)
(238 189)
(181 2)
(188 238)
(13 11)
(239 171)
(240 15)
(15 14)
(16 240)
(14 16)
(19 18)
(17 21)
(21 9)
(241 19)
(242 241)
(24 23)
(28 173)
(243 29)
(32 174)
(227 32)
(33 244)
(244 15)
(245 33)
(34 35)
(178 34)
(36 179)
(3 180)
(3 246)
(38 184)
(246 247)
(39 35)
(35 38)
(248 249)
(3 43)
(41 35)
(250 251)
(251 192)
(45 252)
(252 253)
(253 254)
(255 256)
(42 257)
(254 258)
(257 43)
(258 250)
(20 248)
(46 47)
(259 260)
(261 262)
(263 45)
(45 264)
(263 265)
(266 264)
(260 261)
(265 267)
(267 48)
(48 10)
(48 268)
(262 266)
(247 44)
(269 196)
(200 270)
(197 198)
(50 202)
(199 210)
(51 206)
(50 211)
(204 52)
(52 51)
(205 34)
(34 52)
(52 209)
(207 49)
(203 51)
(216 46)
(214 53)
(271 37)
(217 215)
(221 219)
(218 220)
(37 222)
(43 36)
(272 54)
(225 224)
(12 56)
(58 223)
(57 273)
(58 274)
(274 275)
(276 60)
(54 276)
(275 60)
(61 242)
(236 62)
(277 66)
(66 278)
(279 280)
(281 282)
(60 277)
(280 63)
(278 283)
(284 285)
(283 281)
(282 286)
(286 284)
(285 279)
(287 67)
(288 68)
(289 245)
(290 288)
(9 290)
(69 291)
(291 292)
(68 287)
(293 289)
(292 293)
(71 294)
(295 296)
(297 226)
(4 31)
(298 4)
(74 299)
(300 228)
(301 4)
(75 302)
(16 75)
(28 303)
(294 28)
(28 235)
(231 304)
(305 300)
(297 13)
(230 304)
(306 307)
(307 76)
(75 306)
(74 308)
(308 309)
(310 311)
(311 309)
(72 299)
(233 74)
(70 72)
(16 72)
(30 312)
(75 296)
(5 312)
(30 5)
(301 31)
(298 16)
(5 295)
(64 77)
(78 13)
(93 59)
(19 15)
(8 106)
(9 6)
(6 7)
(106 9)
(10 8)
(107 13)
(108 10)
(18 109)
(110 108)
(111 112)
(113 111)
(114 20)
(115 110)
(10 116)
(9 113)
(112 115)
(109 17)
(116 114)
(23 22)
(25 23)
(38 39)
(41 40)
(40 20)
(42 117)
(44 38)
(39 41)
(47 42)
(118 10)
(20 118)
(117 44)
(54 55)
(55 47)
(57 58)
(119 120)
(121 122)
(120 123)
(123 57)
(59 121)
(122 119)
(60 54)
(62 61)
(63 124)
(124 64)
(55 125)
(126 65)
(127 60)
(20 128)
(129 130)
(40 131)
(128 40)
(65 42)
(42 55)
(130 126)
(132 129)
(131 132)
(125 127)
(7 133)
(134 9)
(67 69)
(133 6)
(135 136)
(6 134)
(137 70)
(136 138)
(16 139)
(140 137)
(138 140)
(139 135)
(141 71)
(13 142)
(143 107)
(142 143)
(144 73)
(73 141)
(76 144)
(70 16)
(145 146)
(146 147)
(147 148)
(148 145)
(77 62)
(78 81)
(149 69)
(150 149)
(67 151)
(151 68)
(33 82)
(82 152)
(152 33)
(153 21)
(21 154)
(154 155)
(155 153)
(156 150)
(68 156)
(157 82)
(82 158)
(33 157)
(18 159)
(88 17)
(158 160)
(160 88)
(83 88)
(88 87)
(84 83)
(159 86)
(59 58)
(87 33)
(161 61)
(162 161)
(163 162)
(78 163)
(76 73)
(73 71)
(24 78)
(25 78)
(164 165)
(165 166)
(167 164)
(166 167)
(168 14)
(100 168)
(77 78)
(63 64)
(11 12)
(22 13)
(26 25)
(27 26)
(24 28)
(28 27)
(56 59)
(79 80)
(13 101)
(81 13)
(84 85)
(84 86)
(56 89)
(89 59)
(12 89)
(12 90)
(90 89)
(11 90)
(91 90)
(79 91)
(92 93)
(92 91)
(91 93)
(80 92)
(80 91)
(14 78)
(22 81)
(90 93)
(78 71)
(28 78)
(28 94)
(94 27)
(28 95)
(95 94)
(28 102)
(102 95)
(27 96)
(96 26)
(27 97)
(97 96)
(94 97)
(26 98)
(98 25)
(26 99)
(99 98)
(96 99)
(71 14)
(100 14)
(103 104)
(104 105)
(105 103)
)

// concaveStart mixedStart nonFeatureStart
2 6 101
// internalStart flatStart openStart multipleStart
85 241 241 365
// normals

487
(
(-0.0145694 0.924147 -0.381759)
(-0.999993 0.00342929 -0.00141662)
(-0.999993 0.00342929 -0.00141662)
(-0.110169 0.879414 -0.463135)
(-0.999959 0.00799643 0.00423065)
(0.999959 -0.00799643 -0.00423065)
(-0.999959 0.00799643 0.00423065)
(-0.999959 0.00799643 0.00423065)
(-0.329691 0.865379 -0.37739)
(-1 0 0)
(-1 0 0)
(-0.342405 0.861202 -0.375619)
(-0.99999 -0.00400776 0.00174801)
(0.99999 0.00400776 -0.00174801)
(0.99999 0.00400776 -0.00174801)
(-0.335463 0.863508 -0.376588)
(-0.0373076 0.915659 -0.400221)
(0.999982 0.00396793 -0.00452778)
(-0.99999 -0.00404795 0.00176537)
(-0.99999 -0.00404795 0.00176537)
(-0.314393 0.942874 -0.110205)
(-0.999857 0.0164286 -0.004087)
(-0.999857 0.0164286 -0.004087)
(0.999884 0.015161 -0.00171386)
(0.999954 -0.00945359 0.00183318)
(0.999954 -0.00945359 0.00183318)
(0.999954 -0.00945359 0.00183318)
(0.999815 0.0192287 -0.000517929)
(-0.999965 0.00761566 -0.0033374)
(-0.999956 -0.00937003 -0.000898147)
(-0.999956 -0.00937003 -0.000898147)
(0.309426 -0.911827 -0.269866)
(1 2.76108e-05 3.25402e-05)
(1 0.000117402 0.000210723)
(-1 -2.76108e-05 -3.25402e-05)
(-1 -0.000117402 -0.000210723)
(-1 0 0)
(-0.999927 0.0118562 -0.00250641)
(-0.999973 0.00690475 -0.00255124)
(-0.999997 0.00236362 -0.000975519)
(-0.999997 0.00236362 -0.000975519)
(-0.999991 -0.00394888 0.00120645)
(-0.999993 0.00342811 -0.0014161)
(-0.999996 0.0025502 -0.00111276)
(-0.999994 -0.00324071 0.00141406)
(-0.999994 -0.00324071 0.00141406)
(0.999994 0.00324071 -0.00141406)
(-0.99982 0.0181093 -0.00559513)
(0.999925 -0.0115821 0.00390036)
(0.999905 -0.0133395 0.00337969)
(0.999905 -0.0133395 0.00337969)
(0.999994 0.00326989 0.000964341)
(0.999994 0.00326989 0.000964341)
(0.999994 0.00326989 0.000964341)
(0.999974 0.00687415 0.00202729)
(0.129019 0.99164 0.00209434)
(0.66758 0.736765 0.107305)
(0.191443 0.981406 0.0138653)
(0.999483 0.0321507 0.000281331)
(0.999989 0.00215833 -0.0042124)
(0.999891 0.0145155 -0.00255025)
(0.99995 0.00938828 -0.00351161)
(-0.999941 0.0100298 -0.00413141)
(-0.999941 0.0100298 -0.00413141)
(-0.999988 -0.00471964 0.00158481)
(0.999988 0.00471964 -0.00158481)
(0.999988 0.00471964 -0.00158481)
(-1 0 0)
(-1 0 0)
(0.999971 0.00627441 -0.00428307)
(0.999962 0.00786472 -0.00386653)
(-0.999965 0.00794398 -0.00266751)
(0.999965 -0.00794398 0.00266751)
(0.999965 -0.00794398 0.00266751)
(-0.999989 -0.004461 0.001621)
(-0.999989 -0.004461 0.001621)
(0.999973 0.00576562 -0.00444547)
(0.999956 0.00869 -0.0036335)
(-1 0 0)
(-1 0 0)
(0.999963 0.00760627 -0.00393428)
(0.999963 0.0076017 -0.0039356)
(0.999957 0.00845413 -0.00369199)
(-0.367192 -0.494242 0.787969)
(-0.0519493 -0.161756 0.985463)
(-0.151974 -0.704653 0.693086)
(-0.0732893 0.192825 -0.978492)
(0.0732893 -0.192825 0.978492)
(0.0732893 -0.192825 0.978492)
(0.736679 0.664621 0.12483)
(0.49529 0.860064 -0.122382)
(0.277041 0.711761 -0.645479)
(0.563229 0.758298 0.328264)
(0.969575 0.207543 0.129811)
(-0.0145666 0.92415 -0.381753)
(0.893297 0.449367 0.00953482)
(0.86272 0.237914 0.446219)
(0.856418 0.504576 0.109319)
(0.868997 0.486837 0.0885062)
(0.755286 0.616056 0.223646)
(0.946876 0.320356 -0.0282253)
(0.864587 0.492093 0.101656)
(0.884014 0.455785 -0.103823)
(0.481704 0.838069 0.256129)
(0.91815 0.396223 -0.00276596)
(0.810163 0.421867 0.40702)
(0.937248 0.329466 -0.114098)
(-0.10472 0.88638 -0.45096)
(-0.999172 0.0361873 -0.018589)
(0.0819876 -0.638853 0.764947)
(-0.891606 0.105351 -0.440387)
(-0.891998 0.104524 -0.439789)
(-0.0803477 -0.119448 0.989584)
(0.466131 0.21072 0.859255)
(0.565829 0.792556 -0.227361)
(0.121014 -0.10457 0.987128)
(0.998021 -0.0625987 0.00603379)
(0.917959 0.392312 -0.0586792)
(-0.0382574 -0.270727 0.961896)
(-0.197029 -0.00905373 0.980356)
(-0.124916 0.0264928 0.991814)
(-0.244059 0.967858 -0.0607204)
(-0.458354 0.886188 -0.0676933)
(-0.495222 0.86545 -0.0758395)
(-0.413057 0.908356 -0.06537)
(-0.347381 0.935599 -0.06309)
(-0.473577 0.877114 -0.0799717)
(-0.499234 0.863555 -0.070977)
(-0.310845 -0.143933 0.939499)
(0.963345 0.22801 0.14134)
(0.937449 0.34492 0.047104)
(0.937016 0.346039 0.0475215)
(0.225727 0.973996 -0.0194615)
(0.351849 0.936033 -0.00674315)
(-0.148341 0.985386 -0.0837251)
(0.932535 0.33746 0.12845)
(0.547886 0.836293 0.0208583)
(0.834123 0.530006 0.152746)
(0.837797 0.523908 0.153675)
(0.163705 0.593636 0.787907)
(0.438639 0.898642 0.00620192)
(0.501635 0.863769 0.0475853)
(0.578031 0.813445 0.0647067)
(0.0233032 0.998724 -0.0448045)
(0.24995 0.810123 -0.530307)
(0.548815 0.83171 -0.0840269)
(0.517045 0.841081 0.158895)
(0.328401 0.753735 -0.569242)
(0.229901 0.812277 -0.536052)
(0.425003 0.833054 -0.354109)
(0.246894 0.809264 -0.533044)
(0.218078 0.817348 -0.533277)
(0.293299 0.773104 -0.562393)
(0.239792 0.812449 -0.531438)
(0.228633 0.815039 -0.532389)
(0.290111 0.787524 -0.543729)
(0.183159 0.983046 0.00860204)
(-0.116054 0.845726 -0.520845)
(-0.0222582 0.803663 -0.594669)
(-0.0643297 0.81685 -0.573252)
(0.287774 0.955246 -0.0684896)
(0.21354 0.976815 0.0152678)
(0.416314 0.902881 -0.10718)
(0.781514 0.41612 -0.464845)
(0 -0 1)
(0 0 1)
(-0.86528 0.501289 0.000179029)
(-1 0 0)
(-1 0 0)
(1 0 0)
(1 -0 -0)
(1 0 0)
(-1 0 0)
(-1 0 0)
(-1 0 0)
(-1 -0 0)
(-1 0 -0)
(-1 0 0)
(-1 0 0)
(-1 0 0)
(-1 0 0)
(-1 0 0)
(0.999191 -0.0384811 0.011674)
(-0.0569661 0.986337 0.154579)
(0.0992491 0.993377 -0.0578996)
(-0.0245124 0.996711 -0.0772385)
(-0.16184 0.981994 -0.0974446)
(-0.0890565 0.99223 -0.0868822)
(-0.310738 -0.451819 0.836242)
(0.181961 -0.113014 0.97679)
(0.183985 -0.109584 0.976801)
(-0.0178928 0.223022 -0.974649)
(0.0279435 0.103409 -0.994246)
(0.918665 0.289972 -0.268273)
(0.717355 0.617321 -0.32298)
(0.636046 0.0649662 -0.768911)
(0.52827 0.61787 -0.582381)
(0.0139955 0.82129 -0.570339)
(0.908765 0.367148 -0.198362)
(-0.0877666 0.906278 -0.413471)
(-0.80077 0.591557 -0.0939503)
(0.00728135 0.927296 -0.374259)
(-0.00294381 -0.913311 0.407252)
(0.609748 0.70923 -0.353838)
(-0.304086 0.890451 -0.338569)
(0.831913 0.492124 -0.256386)
(0.160048 0.924976 -0.344678)
(0.462649 0.630854 -0.62288)
(0.319254 0.690005 0.649592)
(0.789415 0.00344521 0.61385)
(-0.568839 0.350723 -0.743919)
(0.109113 0.421201 0.90038)
(-0.0696235 -0.178022 0.98156)
(-0.0284621 -0.23589 0.971363)
(0.204737 0.402044 0.892437)
(0.204967 0.766792 0.608292)
(0.887125 0.326075 0.326626)
(-0.346729 0.629597 -0.69526)
(-0.252648 -0.683476 0.684858)
(-0.85184 0.210225 -0.479765)
(0.58985 0.803058 -0.0847027)
(0.342386 -0.0834077 0.93585)
(0.60736 0.335824 0.719956)
(0.552539 0.603778 0.574588)
(0.120547 -0.298697 0.946704)
(0.212823 0.770091 0.601387)
(0.633674 0.558316 -0.535481)
(0.374522 0.885509 0.274967)
(0.85687 -0.159248 0.49032)
(0.883903 -0.367203 0.289617)
(-0.75582 0.592636 -0.278423)
(-0.321049 0.854209 -0.408968)
(0.149765 0.988177 -0.0328171)
(0.92148 -0.00167357 0.388423)
(-0.605852 0.56888 -0.556164)
(0.193809 0.799239 -0.568907)
(-0.517502 0.67734 -0.522879)
(0.941194 0.302849 0.149785)
(0.875651 -0.12138 0.467441)
(0.217372 -0.0378772 -0.975354)
(0.867791 0.0467829 0.494721)
(0.207524 0.543169 0.813573)
(0.674106 -0.0991091 0.731955)
(0.266121 0.285521 0.920683)
(-0.278732 -0.399889 -0.873153)
(0.721604 0.426487 0.545341)
(0.589324 -0.00860976 0.807851)
(0.705854 0.433915 0.5599)
(0.548234 -0.0486097 0.834911)
(-0.331623 0.361614 0.871356)
(0.107463 0.0503033 0.992936)
(0.351755 0.750976 -0.558841)
(0.818124 -0.0203558 0.574681)
(-0.309555 0.559325 -0.768981)
(0.809366 -0.0260543 0.586727)
(0.486452 -0.120517 0.865355)
(0.670121 0.471097 0.57359)
(0.938777 0.315596 0.138193)
(0.659669 0.487665 0.571856)
(0.461383 -0.143893 0.875454)
(0.654167 0.499849 0.567641)
(0.44583 -0.160257 0.880655)
(0.651123 0.501024 0.570099)
(0.439581 -0.165448 0.882834)
(-0.475173 0.441589 -0.761059)
(0.798696 -0.0152285 0.601543)
(0.825791 -0.0140176 0.563802)
(0.846451 0.532262 -0.0147933)
(-0.51872 0.403899 -0.753522)
(0.793191 -0.00286398 0.608966)
(0.689103 0.449907 0.568085)
(0.518398 -0.0834307 0.85106)
(0.0397722 0.611048 0.790594)
(0.0828171 0.994818 0.058976)
(0.332137 0.893589 0.301965)
(-0.207963 0.229356 0.950867)
(-0.0995799 0.234134 0.967091)
(0.0686921 0.807558 0.585774)
(0.102778 0.28743 0.952271)
(-0.0605812 0.27706 0.958941)
(0.137148 0.888692 0.437513)
(0.0823059 0.330507 0.940208)
(0.299889 0.953973 -0.00166201)
(-0.0184027 0.303535 0.952642)
(0.213892 0.956865 0.196619)
(0.160292 0.388888 0.907234)
(0.335701 0.939376 -0.0698397)
(-0.416093 0.753999 0.508283)
(-0.38108 0.655642 0.651852)
(-0.172476 0.983254 -0.0588593)
(-0.279631 0.54137 0.792922)
(-0.128714 0.92153 0.366355)
(0.321998 0.946628 -0.0145735)
(0.166222 0.968828 0.183694)
(-0.137767 -0.787924 -0.600164)
(-0.0386521 -0.977947 0.205245)
(0.0358099 0.960442 -0.27617)
(0.128359 0.888233 -0.441097)
(0.195447 0.957056 0.214111)
(0.011616 0.92876 -0.370498)
(0.696949 0.712942 0.0773028)
(0.0537368 0.966102 -0.252506)
(-0.0466015 0.926031 -0.37456)
(-0.338881 0.0787041 -0.937532)
(0.925536 0.286637 -0.247432)
(0.133615 0.843822 -0.519723)
(0.99095 -0.130392 -0.0318787)
(0.142753 0.833223 -0.534192)
(0.690198 -0.58972 0.419352)
(0.273139 0.855945 -0.439038)
(0.441126 -0.71205 0.546253)
(-0.299376 0.770584 -0.56265)
(-0.748881 0.651924 -0.119049)
(-0.243046 0.904359 -0.350805)
(0.992052 0.0535957 0.113841)
(0.999958 0.00843136 -0.00369486)
(-1 0 0)
(-0.0568662 0.986454 0.153868)
(-0.8007 0.258975 0.540195)
(0.999748 0.0224312 0.000433195)
(-0.0731706 0.0694631 -0.994897)
(0.97238 -0.221633 0.0731859)
(0.953228 0.302081 -0.0101256)
(0.711555 0.538739 -0.451054)
(0.998098 0.0244312 -0.0565913)
(0.552058 0.644556 -0.528942)
(0.799333 0.533752 -0.275999)
(0.422479 0.538211 -0.729274)
(0.419988 0.536271 -0.732136)
(0.95666 0.0478961 0.287242)
(0.564547 0.740714 0.364183)
(-1 0 0)
(-1 0 0)
(0.964182 0.23818 0.116721)
(0.0193551 0.997497 -0.0680076)
(0.963674 0.26177 0.0529943)
(-0.273171 0.915317 -0.295926)
(-0.153268 0.905586 -0.395503)
(-0.0712814 0.914332 -0.398642)
(0.0216937 0.924745 -0.379969)
(0.0643858 0.92027 -0.385951)
(0.0827244 0.655436 -0.750707)
(0.298633 0.622338 -0.723542)
(0.0637591 0.992972 0.0997066)
(-0.0301901 0.470226 -0.882029)
(-0.00767407 -0.261679 0.965124)
(-0.21471 -0.689752 0.691478)
(0.301324 -0.126311 0.945119)
(0.290055 0.126821 0.94857)
(-0.194081 -0.640975 0.742619)
(0.6099 0.250572 0.751821)
(0.765828 -0.258667 0.588727)
(0.978342 0.173777 0.112463)
(-0.0888034 -0.347173 0.933587)
(0.198377 0.406366 0.891916)
(0.907438 -0.310753 0.282822)
(-0.157756 0.792292 0.589394)
(-0.163413 0.609292 0.775925)
(0.98787 0.147806 0.0476043)
(0.412368 0.757022 -0.506823)
(-0.0368295 0.949545 -0.31146)
(0.983666 -0.0438957 0.174568)
(-0.0861684 0.994429 -0.060717)
(-0.0388693 0.52418 0.85072)
(0.0276742 -0.0953736 0.995057)
(0.266813 0.945855 0.18485)
(0.960957 -0.152195 0.231079)
(-0.12737 0.976451 0.174129)
(0.338699 0.93835 -0.0691496)
(0.934775 -0.237488 0.264188)
(-0.14883 0.908551 0.390364)
(0.189048 0.719211 0.668578)
(0.608862 0.416396 0.675205)
(-0.438716 0.896829 0.0567958)
(0.810603 0.491551 0.318278)
(0.540684 0.713001 -0.44642)
(-0.228358 -0.377869 -0.897256)
(-0.803886 0.539894 -0.249562)
(0.640946 0.647049 -0.412935)
(0.819779 0.565251 -0.0919467)
(-0.13109 0.921927 0.364507)
(0.750753 0.439021 0.493589)
(-0.137687 -0.283314 -0.949092)
(0.798405 0.523294 -0.297847)
(0.893017 0.410207 -0.18507)
(0.749831 0.00432992 -0.661615)
(0.954899 0.285288 -0.0823307)
(-0.633814 0.758811 -0.149956)
(0.835459 0.535287 0.124401)
(0.421192 0.487521 0.764801)
(0.749636 0.416504 0.514363)
(0.207181 0.0596106 0.976485)
(0.704984 0.426142 0.566922)
(0.688389 0.442226 0.57494)
(0.247965 0.48832 0.836694)
(-0.0693029 -0.124612 0.989782)
(-0.0930036 0.444206 0.891084)
(-0.23902 0.541201 0.806208)
(-0.142112 0.978906 -0.146787)
(-0.321059 0.927386 -0.192034)
(0.997892 -0.0626378 0.0169501)
(-0.181777 0.981636 -0.0578637)
(0.997623 -0.066569 0.0178014)
(-0.173908 0.983034 -0.0583081)
(0.997123 -0.0733097 0.0192548)
(0.972131 0.191248 0.135593)
(-0.0126643 0.998165 -0.0592063)
(0.970571 0.240437 -0.0135035)
(0.699005 0.715031 0.0110781)
(0.116714 -0.023317 -0.992892)
(0.41216 0.911106 -0.00320005)
(0.0432298 0.0368359 -0.998386)
(0.740101 0.672317 0.0154706)
(0.126715 -0.035924 -0.991288)
(0.107293 0.994173 -0.0103553)
(-0.0404653 0.0662017 -0.996985)
(0.537608 0.842978 0.0191358)
(0.0766393 0.0154092 -0.99694)
(0.276938 0.96055 -0.0254682)
(0.0071358 0.0552621 -0.998446)
(0.450508 0.89274 0.00753755)
(0.0532828 0.0308986 -0.998101)
(0.475953 0.879389 0.0119976)
(0.060386 0.0264056 -0.997826)
(0.632132 0.774583 0.0207489)
(0.100743 -0.00557137 -0.994897)
(0.515482 0.831489 0.207135)
(-1 0 0)
(0.541434 0.806294 0.2382)
(-1 0 0)
(-0.0552044 0.722242 -0.689434)
(-1 0 0)
(0.546224 0.801149 0.24454)
(-1 0 0)
(0.549061 0.798352 0.247318)
(-1 0 0)
(0.353351 0.932893 0.069676)
(-1 -0 0)
(0.351562 0.936165 0)
(-1 0 0)
(0.533771 0.814392 0.227717)
(0.112336 0.893751 -0.43427)
(-1 0 0)
(0.132854 0.979783 -0.149583)
(0.712274 0.60213 -0.360701)
(0.797362 -0.47338 0.374333)
(-0.0672584 0.886632 -0.457559)
(0.54683 -0.647669 0.530568)
(0.812928 0.572722 -0.105534)
(0.600824 0.67889 -0.422042)
(-0.266806 0.781818 -0.563538)
(0.96914 0.146497 -0.198257)
(0.0811332 0.87567 -0.476046)
(0.242577 0.854947 -0.458499)
(0.736652 0.538552 -0.409029)
(-0.340201 -0.463239 0.818335)
(0.0958169 0.980383 -0.172244)
(-0.0569614 0.883414 -0.465119)
(0.195722 0.980604 -0.0104551)
(0.137701 0.847495 -0.512631)
(-0.0867895 0.908335 -0.40914)
(-0.173381 0.745141 -0.643975)
(0.654448 0.730653 -0.194536)
(-0.305864 -0.423663 0.852618)
(0.561823 0.81216 -0.157324)
(-0.309646 -0.442982 0.84136)
(0.670682 0.578739 -0.463947)
(-0.295239 -0.385775 0.874078)
(-0.253722 0.786339 -0.563291)
(0.701671 0.585789 -0.405598)
(-0.240627 0.790894 -0.562658)
(-0.204776 0.803344 -0.5592)
(0.325728 0.805817 -0.49453)
(-0.225584 0.796145 -0.561484)
(0.48034 0.738366 -0.47338)
(-0.282044 0.776572 -0.563372)
(0.0858804 0.848221 -0.522633)
(0.64541 0.731303 -0.22055)
(0.955908 0.292214 0.0291624)
(0.672595 0.594442 -0.440745)
(0.572629 0.754916 -0.319684)
(0.940169 -0.211772 0.266898)
(0.0574082 0.879106 -0.473156)
(0.327787 0.721273 -0.610181)
(0.647997 0.68263 -0.337811)
(1 6.33494e-05 7.46727e-05)
(-1 -6.33494e-05 -7.46727e-05)
)

// edgeNormals

416
(
2(89 193)
2(194 195)
2(196 197)
2(108 8)
2(198 199)
2(198 200)
2(201 202)
2(203 204)
2(205 206)
2(207 208)
2(209 210)
2(211 212)
2(213 214)
2(215 216)
2(110 217)
2(112 218)
2(219 220)
2(221 222)
2(223 224)
2(225 226)
2(227 228)
2(229 230)
2(231 232)
2(231 233)
2(234 235)
2(236 237)
2(232 238)
2(216 239)
2(240 220)
2(115 241)
2(242 243)
2(244 239)
2(245 246)
2(247 248)
2(249 250)
2(251 252)
2(253 254)
2(255 256)
2(257 235)
2(258 259)
2(260 261)
2(262 263)
2(264 265)
2(266 267)
2(268 269)
2(270 271)
2(272 273)
2(243 274)
2(275 273)
2(276 277)
2(278 274)
2(279 280)
2(281 282)
2(283 284)
2(285 286)
2(121 287)
2(288 289)
2(290 291)
2(292 139)
2(157 293)
2(294 295)
2(294 296)
2(297 298)
2(299 202)
2(300 301)
2(302 303)
2(304 305)
2(306 307)
2(308 309)
2(310 311)
2(312 313)
2(200 206)
2(314 166)
2(315 28)
2(316 317)
2(318 55)
2(319 320)
2(84 59)
2(57 59)
2(485 486)
2(485 486)
2(485 486)
2(32 34)
2(32 34)
2(33 35)
2(321 322)
2(321 215)
2(323 225)
2(324 215)
2(325 225)
2(94 42)
2(195 326)
2(327 208)
2(327 318)
2(328 208)
2(328 83)
2(329 176)
2(330 331)
2(103 332)
2(333 334)
2(335 336)
2(337 108)
2(198 338)
2(199 205)
2(339 295)
2(340 294)
2(341 183)
2(342 343)
2(344 175)
2(209 262)
2(209 268)
2(211 213)
2(214 345)
2(345 346)
2(347 222)
2(348 349)
2(109 114)
2(109 350)
2(351 352)
2(353 354)
2(114 210)
2(355 356)
2(229 357)
2(358 359)
2(358 360)
2(361 362)
2(363 364)
2(365 218)
2(366 367)
2(368 218)
2(369 370)
2(240 117)
2(115 242)
2(371 372)
2(373 374)
2(375 376)
2(375 377)
2(376 378)
2(377 379)
2(380 381)
2(382 383)
2(244 384)
2(239 385)
2(385 386)
2(387 388)
2(389 118)
2(390 246)
2(391 249)
2(245 248)
2(251 254)
2(392 271)
2(253 265)
2(255 393)
2(258 261)
2(258 265)
2(260 263)
2(260 269)
2(264 269)
2(267 252)
2(256 259)
2(394 274)
2(276 273)
2(395 396)
2(277 279)
2(281 284)
2(283 280)
2(285 282)
2(286 354)
2(119 397)
2(398 290)
2(399 37)
2(121 288)
2(125 287)
2(289 400)
2(401 402)
2(128 403)
2(128 291)
2(403 404)
2(405 184)
2(129 166)
2(406 407)
2(406 320)
2(408 409)
2(410 411)
2(134 407)
2(412 413)
2(414 415)
2(416 417)
2(418 419)
2(420 421)
2(422 423)
2(424 425)
2(426 427)
2(428 429)
2(430 431)
2(432 433)
2(434 435)
2(436 437)
2(438 439)
2(440 427)
2(441 442)
2(443 439)
2(156 58)
2(444 445)
2(446 293)
2(447 448)
2(447 449)
2(450 451)
2(298 452)
2(453 448)
2(454 309)
2(454 455)
2(456 300)
2(456 60)
2(299 312)
2(457 303)
2(458 459)
2(293 460)
2(303 461)
2(462 463)
2(464 465)
2(466 467)
2(304 468)
2(469 470)
2(471 472)
2(473 474)
2(306 475)
2(305 451)
2(476 163)
2(163 311)
2(477 478)
2(308 479)
2(478 480)
2(478 481)
2(448 482)
2(483 310)
2(484 481)
2(314 191)
2(27 31)
2(48 38)
2(318 343)
1(89)
1(90)
1(91)
1(92)
1(93)
1(94)
1(95)
1(96)
1(97)
1(98)
1(99)
1(100)
1(101)
1(102)
1(103)
1(104)
1(105)
1(106)
1(107)
1(108)
1(109)
1(110)
1(111)
1(112)
1(113)
1(114)
1(115)
1(116)
1(117)
1(118)
1(119)
1(120)
1(121)
1(122)
1(123)
1(124)
1(125)
1(126)
1(127)
1(128)
1(129)
1(130)
1(131)
1(132)
1(133)
1(134)
1(135)
1(136)
1(137)
1(138)
1(139)
1(139)
1(140)
1(141)
1(142)
1(143)
1(144)
1(145)
1(146)
1(147)
1(148)