/*--------------------------------*- C++ -*----------------------------------*\
| =========                 |                                                 |
| \\      /  F ield         | OpenFOAM: The Open Source CFD Toolbox           |
|  \\    /   O peration     | Version:  2.2.x                                 |
|   \\  /    A nd           | Web:      www.OpenFOAM.org                      |
|    \\/     M anipulation  |                                                 |
\*---------------------------------------------------------------------------*/
FoamFile
{
    version     2.0;
    format      ascii;
    class       extendedFeatureEdgeMesh;
    location    "constant/extendedFeatureEdgeMesh";
    object      face.extendedFeatureEdgeMesh;
}
// * * * * * * * * * * * * * * * * * * * * * * * * * * * * * * * * * * * * * //

// points

604
(
(1.75038 3.46728 1.49698)
(1.82052 3.4148 1.51182)
(1.8 3.42137 1.62687)
(1.85178 3.44103 1.53413)
(1.82406 3.41413 1.53095)
(1.81299 3.4112 1.53296)
(1.83648 3.44584 1.48437)
(1.81163 3.4101 1.53438)
(1.81261 3.41157 1.52412)
(1.82448 3.41932 1.50526)
(1.86119 3.45954 1.57537)
(1.8593 3.46054 1.54042)
(1.84962 3.46728 1.49698)
(1.79441 3.47503 1.46754)
(1.74888 3.47761 1.49944)
(1.79858 3.47366 1.46624)
(1.8 3.47326 1.46578)
(1.76352 3.44584 1.48437)
(1.77869 3.4828 1.47164)
(1.76925 3.4899 1.47339)
(1.75221 3.47937 1.49534)
(1.85219 3.44122 1.60543)
(1.84514 3.4328 1.61168)
(1.80184 3.40749 1.51467)
(1.80287 3.40759 1.51499)
(1.80222 3.40752 1.51481)
(1.80079 3.40745 1.51398)
(1.80111 3.40745 1.51428)
(1.80136 3.40746 1.51443)
(1.80123 3.40745 1.51436)
(1.8 3.40744 1.5134)
(1.81155 3.40991 1.5136)
(1.79999 3.40669 1.51285)
(1.79999 3.4068 1.5129)
(1.79998 3.40702 1.51302)
(1.8 3.40587 1.50779)
(1.8 3.41187 1.49387)
(1.8 3.41085 1.4942)
(1.8 3.41315 1.49383)
(1.8 3.41158 1.49394)
(1.8 3.41017 1.49459)
(1.8 3.40845 1.50523)
(1.8 3.3999 1.54348)
(1.81316 3.40854 1.52548)
(1.81281 3.40583 1.52713)
(1.80832 3.40521 1.5373)
(1.80848 3.39879 1.5301)
(1.8 3.40709 1.52202)
(1.82168 3.41541 1.50787)
(1.80155 3.40672 1.52262)
(1.81306 3.40725 1.52624)
(1.81302 3.40864 1.52549)
(1.81304 3.40727 1.52622)
(1.80817 3.39879 1.52984)
(1.80901 3.40053 1.52892)
(1.81219 3.41076 1.5243)
(1.81234 3.41123 1.52417)
(1.81233 3.41109 1.52422)
(1.8122 3.41039 1.52444)
(1.83594 3.43308 1.62489)
(1.81251 3.42311 1.62759)
(1.82438 3.4279 1.62697)
(1.80799 3.41851 1.56128)
(1.83247 3.43049 1.494)
(1.80305 3.40009 1.54288)
(1.80157 3.39987 1.54333)
(1.8 3.41059 1.575)
(1.81292 3.41474 1.57527)
(1.803 3.40023 1.54316)
(1.80436 3.40055 1.54215)
(1.80422 3.47455 1.46712)
(1.80283 3.4741 1.46669)
(1.80559 3.47503 1.46754)
(1.81102 3.47721 1.4691)
(1.80831 3.47606 1.46834)
(1.83075 3.4899 1.47339)
(1.82131 3.4828 1.47164)
(1.81368 3.47847 1.46981)
(1.8324 3.48802 1.47792)
(1.84947 3.47848 1.49727)
(1.85371 3.4752 1.50335)
(1.8514 3.43544 1.55775)
(1.79952 3.40746 1.51366)
(1.74355 3.44952 1.59688)
(1.74607 3.44666 1.6129)
(1.79865 3.40746 1.51443)
(1.8 3.41235 1.49381)
(1.79989 3.40717 1.51315)
(1.79713 3.40759 1.51499)
(1.794 3.40818 1.51521)
(1.78875 3.40981 1.51376)
(1.78739 3.41157 1.52412)
(1.78839 3.41008 1.5344)
(1.79168 3.40521 1.5373)
(1.78643 3.41171 1.53188)
(1.78652 3.41228 1.52813)
(1.78623 3.41215 1.53009)
(1.78624 3.41216 1.53003)
(1.78678 3.41138 1.53267)
(1.78626 3.41196 1.53102)
(1.78673 3.41142 1.5326)
(1.78631 3.41187 1.53139)
(1.78719 3.40583 1.52713)
(1.79153 3.39879 1.5301)
(1.74753 3.44156 1.594)
(1.74537 3.44546 1.591)
(1.75332 3.43884 1.6212)
(1.7473 3.44161 1.5942)
(1.78708 3.41474 1.57527)
(1.75126 3.43229 1.55449)
(1.76957 3.41658 1.52959)
(1.76961 3.4177 1.52556)
(1.74822 3.44103 1.53413)
(1.74066 3.46058 1.54041)
(1.75491 3.4304 1.52868)
(1.7875 3.41083 1.53359)
(1.79981 3.39569 1.52892)
(1.76406 3.43308 1.62489)
(1.79057 3.40999 1.52384)
(1.79845 3.40672 1.52262)
(1.79368 3.40838 1.52351)
(1.78703 3.40736 1.52612)
(1.79099 3.40053 1.52892)
(1.7871 3.40664 1.52659)
(1.79183 3.39879 1.52984)
(1.78766 3.41123 1.52417)
(1.78715 3.40629 1.52681)
(1.78703 3.40697 1.52639)
(1.78774 3.411 1.52424)
(1.78764 3.41121 1.52419)
(1.78165 3.42015 1.55515)
(1.75429 3.42923 1.5528)
(1.75907 3.42487 1.55112)
(1.792 3.41851 1.56128)
(1.79695 3.40009 1.54288)
(1.79843 3.39987 1.54333)
(1.797 3.40023 1.54316)
(1.79564 3.40055 1.54215)
(1.79007 3.41936 1.5686)
(1.82727 3.48801 1.47253)
(1.8592 3.46054 1.54038)
(1.85907 3.46054 1.54042)
(1.81164 3.41004 1.52442)
(1.80142 3.47366 1.46624)
(1.81627 3.47982 1.47047)
(1.75025 3.43337 1.55526)
(1.78836 3.41004 1.52442)
(1.79212 3.43953 1.6007)
(1.84491 3.43016 1.5286)
(1.845 3.44488 1.50871)
(1.81308 3.4107 1.53385)
(1.81456 3.41128 1.53334)
(1.81761 3.41232 1.53244)
(1.8333 3.43295 1.4923)
(1.81253 3.41083 1.53341)
(1.82584 3.4204 1.50364)
(1.82474 3.41953 1.50487)
(1.83103 3.42717 1.49654)
(1.82782 3.42236 1.50118)
(1.85282 3.43857 1.54549)
(1.8524 3.43759 1.56245)
(1.85531 3.44406 1.56817)
(1.85163 3.4358 1.55833)
(1.85213 3.43675 1.56034)
(1.8508 3.43463 1.55659)
(1.84967 3.43328 1.55514)
(1.85221 3.43708 1.56147)
(1.85229 3.43736 1.56219)
(1.85221 3.43713 1.56171)
(1.84353 3.45673 1.48987)
(1.77509 3.43021 1.48024)
(1.78288 3.41963 1.47947)
(1.78783 3.41536 1.47893)
(1.79998 3.40713 1.51307)
(1.79998 3.40722 1.51314)
(1.80011 3.40717 1.51315)
(1.80394 3.40774 1.51516)
(1.80054 3.40733 1.51364)
(1.80037 3.40738 1.5135)
(1.80089 3.40745 1.51408)
(1.80011 3.40736 1.51331)
(1.79999 3.40739 1.5133)
(1.806 3.40818 1.51521)
(1.80788 3.40875 1.51502)
(1.81125 3.40981 1.51376)
(1.81441 3.41089 1.51204)
(1.82445 3.41931 1.50524)
(1.823 3.41834 1.50258)
(1.82267 3.41653 1.50706)
(1.8 3.40639 1.51263)
(1.80048 3.40746 1.51366)
(1.8 3.40684 1.50654)
(1.81754 3.41228 1.51046)
(1.82035 3.41417 1.50882)
(1.8 3.41047 1.50303)
(1.8 3.41032 1.50337)
(1.8 3.41035 1.50149)
(1.8 3.41051 1.50193)
(1.8 3.40874 1.4984)
(1.8 3.41022 1.50123)
(1.8 3.41056 1.5022)
(1.8 3.41017 1.50361)
(1.80046 3.40726 1.51351)
(1.80031 3.40733 1.51341)
(1.8002 3.40723 1.51326)
(1.8 3.40632 1.51255)
(1.80025 3.4073 1.51336)
(1.81284 3.41169 1.5251)
(1.81302 3.41192 1.526)
(1.81278 3.41121 1.52477)
(1.81278 3.41117 1.52475)
(1.80191 3.3999 1.54325)
(1.80622 3.40195 1.54031)
(1.80511 3.40098 1.54154)
(1.80367 3.40027 1.54257)
(1.81294 3.41003 1.5248)
(1.81304 3.41194 1.52611)
(1.81298 3.41089 1.52544)
(1.80037 3.40746 1.51357)
(1.8002 3.40705 1.52209)
(1.80014 3.40745 1.51343)
(1.80433 3.40781 1.5152)
(1.80075 3.40684 1.52233)
(1.80318 3.40693 1.52305)
(1.80632 3.40838 1.52351)
(1.80943 3.40999 1.52384)
(1.80038 3.40699 1.52216)
(1.80821 3.40885 1.51496)
(1.81783 3.41244 1.51031)
(1.8 3.39571 1.52892)
(1.8 3.39569 1.52895)
(1.8 3.39582 1.52876)
(1.80018 3.39581 1.52876)
(1.80019 3.39577 1.52881)
(1.8 3.39576 1.52885)
(1.80818 3.39877 1.52988)
(1.80477 3.40757 1.52332)
(1.81228 3.41098 1.52425)
(1.81222 3.41072 1.52433)
(1.81226 3.41084 1.5243)
(1.81222 3.41003 1.52458)
(1.81226 3.40984 1.52467)
(1.81242 3.40923 1.52497)
(1.81226 3.411 1.52424)
(1.81214 3.41081 1.52428)
(1.81237 3.40928 1.52493)
(1.81224 3.4097 1.52472)
(1.81223 3.4107 1.52434)
(1.81218 3.41043 1.52442)
(1.81221 3.41055 1.52439)
(1.81242 3.41131 1.52417)
(1.81218 3.41009 1.52455)
(1.8122 3.41022 1.52451)
(1.81237 3.4112 1.52419)
(1.81298 3.40868 1.52545)
(1.80038 3.39576 1.52882)
(1.80037 3.3958 1.52877)
(1.85272 3.44001 1.53981)
(1.84851 3.43558 1.53109)
(1.81057 3.41901 1.55947)
(1.81322 3.41946 1.55782)
(1.81861 3.42018 1.55504)
(1.82824 3.43596 1.48098)
(1.82917 3.42408 1.49935)
(1.82157 3.42444 1.48005)
(1.80299 3.40013 1.54294)
(1.80655 3.41219 1.57505)
(1.80703 3.40299 1.53917)
(1.80542 3.40121 1.54123)
(1.80299 3.40016 1.543)
(1.82567 3.4177 1.57583)
(1.84343 3.42394 1.573)
(1.84782 3.42849 1.571)
(1.83814 3.42044 1.57444)
(1.84964 3.43094 1.56961)
(1.85199 3.43643 1.55959)
(1.85677 3.44753 1.57036)
(1.85447 3.44215 1.56672)
(1.8409 3.42201 1.57378)
(1.83517 3.41931 1.57497)
(1.84573 3.42613 1.57208)
(1.79911 3.40745 1.51408)
(1.79889 3.40745 1.51428)
(1.79974 3.40745 1.51349)
(1.79971 3.4074 1.51345)
(1.79815 3.40749 1.51467)
(1.79963 3.40738 1.5135)
(1.79946 3.40733 1.51364)
(1.8 3.4072 1.50621)
(1.8 3.40613 1.50736)
(1.79994 3.40733 1.51325)
(1.79989 3.40736 1.51331)
(1.8 3.40952 1.50013)
(1.8 3.40881 1.49869)
(1.79606 3.40774 1.51516)
(1.79212 3.40875 1.51502)
(1.78559 3.41089 1.51204)
(1.79954 3.40726 1.51351)
(1.79975 3.4073 1.51336)
(1.78246 3.41228 1.51046)
(1.7998 3.40723 1.51326)
(1.79969 3.40733 1.51341)
(1.79809 3.3999 1.54325)
(1.78722 3.41121 1.52477)
(1.78722 3.41117 1.52475)
(1.78844 3.41003 1.53445)
(1.78716 3.41169 1.5251)
(1.79633 3.40027 1.54257)
(1.78729 3.411 1.53336)
(1.79377 3.40195 1.54031)
(1.79489 3.40098 1.54154)
(1.79046 3.40739 1.53607)
(1.78696 3.41194 1.52611)
(1.78716 3.41171 1.52514)
(1.78696 3.41197 1.52614)
(1.78684 3.40854 1.52548)
(1.78706 3.41003 1.5248)
(1.74968 3.43765 1.59701)
(1.75274 3.43343 1.59933)
(1.74537 3.44569 1.58992)
(1.76186 3.42044 1.57444)
(1.75077 3.43282 1.55491)
(1.75238 3.43111 1.55366)
(1.75136 3.43218 1.55439)
(1.755 3.44488 1.50871)
(1.748 3.43645 1.55963)
(1.74854 3.43553 1.55789)
(1.74926 3.43455 1.55649)
(1.75016 3.43347 1.55535)
(1.74917 3.43466 1.55663)
(1.7478 3.43711 1.56166)
(1.75145 3.4357 1.53121)
(1.78676 3.41219 1.52711)
(1.78223 3.41236 1.5324)
(1.78642 3.41228 1.52858)
(1.76406 3.4204 1.52831)
(1.75921 3.42518 1.52779)
(1.79962 3.39576 1.52882)
(1.79963 3.3958 1.52877)
(1.79982 3.39581 1.52876)
(1.79981 3.39577 1.52881)
(1.78702 3.41094 1.52547)
(1.7998 3.40705 1.52209)
(1.79124 3.40903 1.51481)
(1.79962 3.40699 1.52216)
(1.79925 3.40684 1.52233)
(1.8 3.39579 1.52881)
(1.78753 3.4114 1.52414)
(1.79182 3.39877 1.52988)
(1.78725 3.40599 1.52698)
(1.78763 3.40928 1.52493)
(1.78753 3.40886 1.52515)
(1.78749 3.40882 1.52518)
(1.78722 3.40594 1.52702)
(1.78776 3.4097 1.52472)
(1.78772 3.41098 1.52425)
(1.78781 3.41076 1.5243)
(1.75586 3.42916 1.52833)
(1.76387 3.42234 1.55058)
(1.76977 3.42115 1.55123)
(1.78678 3.41946 1.55782)
(1.78139 3.42018 1.55504)
(1.79178 3.4077 1.54358)
(1.75863 3.42518 1.55123)
(1.79129 3.41045 1.54972)
(1.78033 3.41292 1.53192)
(1.76655 3.41846 1.52886)
(1.78943 3.41901 1.55947)
(1.76111 3.42352 1.55073)
(1.76085 3.42342 1.52784)
(1.75033 3.43328 1.55514)
(1.7873 3.41055 1.53398)
(1.77176 3.43596 1.48098)
(1.77843 3.42444 1.48005)
(1.79345 3.41219 1.57505)
(1.79701 3.40013 1.54294)
(1.78878 3.41787 1.57091)
(1.79202 3.41861 1.5614)
(1.7921 3.41945 1.56251)
(1.79061 3.41982 1.56759)
(1.78998 3.41928 1.56875)
(1.79297 3.40299 1.53917)
(1.79458 3.40121 1.54123)
(1.79118 3.42017 1.56635)
(1.79165 3.42025 1.56506)
(1.79198 3.42002 1.56375)
(1.79701 3.40016 1.543)
(1.74793 3.4366 1.55998)
(1.74779 3.43699 1.56104)
(1.74842 3.43572 1.5582)
(1.74968 3.43403 1.55589)
(1.77433 3.4177 1.57583)
(1.74998 3.43368 1.55552)
(1.79208 3.41892 1.56176)
(1.79092 3.42005 1.56698)
(1.75456 3.42894 1.55266)
(1.79205 3.41983 1.56323)
(1.7921 3.4193 1.56223)
(1.76161 3.42327 1.55068)
(1.77029 3.4211 1.55133)
(1.79162 3.42027 1.56522)
(1.79188 3.42015 1.56425)
(1.76441 3.42217 1.55059)
(1.93178 3.55436 0.0916016)
(1.93161 3.55431 0.0916016)
(1.93165 3.54566 0.0916016)
(1.93182 3.54692 0.0916016)
(1.8 3.48898 1.4756)
(1.8138 3.41194 1.53111)
(1.81338 3.4115 1.53241)
(1.81322 3.41119 1.5331)
(1.81364 3.41155 1.53258)
(1.81318 3.41219 1.52689)
(1.8138 3.4122 1.5297)
(1.79229 3.44172 1.46887)
(1.79369 3.46753 1.469)
(1.81315 3.41378 1.49523)
(1.80967 3.41309 1.49445)
(1.81584 3.41489 1.49637)
(1.8 3.40966 1.5042)
(1.8 3.4093 1.50454)
(1.80949 3.41231 1.49461)
(1.80597 3.39697 1.53005)
(1.80311 3.39581 1.52952)
(1.8 3.40887 1.51798)
(1.8 3.40882 1.51916)
(1.8 3.40853 1.52029)
(1.8 3.40842 1.5156)
(1.79997 3.40826 1.5208)
(1.80041 3.40775 1.52146)
(1.80018 3.40813 1.52094)
(1.80031 3.39879 1.5259)
(1.80753 3.40576 1.52508)
(1.80128 3.39873 1.52608)
(1.80903 3.40295 1.52725)
(1.80826 3.40436 1.52609)
(1.82588 3.42502 1.48968)
(1.80711 3.40622 1.5411)
(1.80154 3.39995 1.54344)
(1.8008 3.40224 1.54743)
(1.80303 3.40035 1.5435)
(1.8 3.40236 1.54717)
(1.80865 3.42022 1.56593)
(1.80831 3.42024 1.56494)
(1.80951 3.41973 1.56782)
(1.80806 3.42008 1.56396)
(1.80792 3.41972 1.56298)
(1.80631 3.46753 1.469)
(1.80771 3.44172 1.46887)
(1.84029 3.45428 1.48538)
(1.80663 3.40328 1.53954)
(1.80536 3.40135 1.54149)
(1.80693 3.40463 1.53902)
(1.8065 3.4041 1.53938)
(1.80541 3.40126 1.54141)
(1.80691 3.40311 1.53943)
(1.81839 3.42054 1.55575)
(1.81299 3.41983 1.55849)
(1.84911 3.43263 1.5562)
(1.82036 3.41636 1.5949)
(1.84335 3.42924 1.60097)
(1.83697 3.42241 1.58904)
(1.79033 3.41309 1.49445)
(1.8 3.40958 1.4951)
(1.78685 3.41378 1.49523)
(1.78416 3.41489 1.49637)
(1.79689 3.39581 1.52952)
(1.79402 3.39697 1.53005)
(1.76303 3.42241 1.58904)
(1.75665 3.42924 1.60097)
(1.74891 3.43335 1.56773)
(1.75218 3.42849 1.571)
(1.77964 3.41636 1.5949)
(1.73881 3.45954 1.57537)
(1.77544 3.41491 1.52896)
(1.78647 3.41111 1.53336)
(1.74444 3.45085 1.5373)
(1.74632 3.44597 1.53572)
(1.78038 3.41507 1.5154)
(1.77555 3.41931 1.50524)
(1.75988 3.43298 1.51017)
(1.78602 3.41148 1.53284)
(1.79682 3.40693 1.52305)
(1.79982 3.40813 1.52094)
(1.79959 3.40775 1.52146)
(1.79097 3.40295 1.52725)
(1.79969 3.39879 1.5259)
(1.79174 3.40436 1.52609)
(1.79872 3.39873 1.52608)
(1.79247 3.40576 1.52508)
(1.79289 3.40622 1.5411)
(1.79282 3.40573 1.53985)
(1.7992 3.40224 1.54743)
(1.79846 3.39995 1.54344)
(1.79631 3.40261 1.54687)
(1.7927 3.40547 1.53927)
(1.79337 3.40328 1.53954)
(1.79464 3.40135 1.54149)
(1.79309 3.40311 1.53943)
(1.79459 3.40126 1.54141)
(1.7935 3.4041 1.53938)
(1.79307 3.40463 1.53902)
(1.8 3.47893 1.49629)
(1.83033 3.41653 1.52961)
(1.81475 3.41209 1.53166)
(1.85929 3.46054 1.54038)
(1.79578 3.47455 1.46712)
(1.79717 3.4741 1.46669)
(1.8 3.44013 1.46719)
(1.75971 3.45428 1.48538)
(1.78898 3.47721 1.4691)
(1.78632 3.47847 1.46981)
(1.79169 3.47606 1.46834)
(1.7676 3.48802 1.47792)
(1.78373 3.47982 1.47047)
(1.75053 3.47848 1.49727)
(1.76523 3.48619 1.48194)
(1.75914 3.48285 1.48874)
(1.85645 3.44952 1.59688)
(1.84913 3.4369 1.60897)
(1.8 3.40535 1.50935)
(1.8 3.40532 1.50967)
(1.8 3.40533 1.51022)
(1.8 3.40573 1.50806)
(1.8 3.40554 1.50853)
(1.8 3.40546 1.50883)
(1.80518 3.41224 1.49404)
(1.8 3.41042 1.49443)
(1.8 3.41111 1.49408)
(1.8 3.40979 1.4949)
(1.81185 3.40329 1.52854)
(1.81042 3.40094 1.52954)
(1.81281 3.40592 1.52705)
(1.80521 3.39665 1.52986)
(1.80157 3.39555 1.52925)
(1.80127 3.39557 1.52916)
(1.80024 3.40284 1.52391)
(1.80875 3.40102 1.52839)
(1.80127 3.40276 1.52417)
(1.80145 3.40477 1.5234)
(1.81095 3.41233 1.54797)
(1.80918 3.40898 1.54267)
(1.82937 3.42768 1.49164)
(1.80228 3.39999 1.54319)
(1.80721 3.40669 1.54244)
(1.80705 3.40302 1.53938)
(1.80159 3.4004 1.54453)
(1.80156 3.40014 1.54392)
(1.80155 3.40001 1.5436)
(1.80306 3.40061 1.54413)
(1.8 3.4131 1.56762)
(1.8 3.41292 1.56872)
(1.80078 3.39987 1.54347)
(1.8 3.41179 1.56215)
(1.8 3.41254 1.56428)
(1.8 3.41305 1.5665)
(1.8 3.41208 1.57078)
(1.8037 3.40031 1.54258)
(1.80817 3.40876 1.5479)
(1.808 3.40468 1.5379)
(1.84779 3.47937 1.49534)
(1.84086 3.48285 1.48874)
(1.85113 3.47761 1.49944)
(1.83477 3.48619 1.48194)
(1.85083 3.43464 1.55726)
(1.83989 3.42494 1.59541)
(1.81864 3.41567 1.58853)
(1.74921 3.44261 1.61751)
(1.78815 3.40329 1.52854)
(1.78958 3.40094 1.52954)
(1.76011 3.42494 1.59541)
(1.75036 3.43094 1.56961)
(1.78136 3.41567 1.58853)
(1.78679 3.41119 1.5331)
(1.78525 3.41209 1.53166)
(1.77561 3.41455 1.52994)
(1.78159 3.41307 1.53108)
(1.76728 3.41976 1.52283)
(1.77096 3.41698 1.52616)
(1.75709 3.43197 1.51917)
(1.78749 3.42311 1.62759)
(1.79971 3.40837 1.51589)
(1.79256 3.4091 1.52241)
(1.7874 3.41114 1.52066)
(1.78718 3.40786 1.52575)
(1.79976 3.40284 1.52391)
(1.79125 3.40102 1.52839)
(1.79479 3.39665 1.52986)
(1.79873 3.39557 1.52916)
(1.79843 3.39555 1.52925)
(1.79856 3.40477 1.5234)
(1.77562 3.4279 1.62697)
(1.79295 3.40302 1.53938)
(1.79844 3.40014 1.54392)
(1.79841 3.4004 1.54453)
(1.79772 3.39999 1.54319)
(1.79845 3.40001 1.5436)
(1.79698 3.40035 1.5435)
(1.79694 3.40061 1.54413)
(1.79922 3.39987 1.54347)
(1.7963 3.40031 1.54258)
(1.792 3.40468 1.5379)
(1.79184 3.40836 1.5463)
(1.79183 3.40876 1.5479)
)

// edges

727
(
(408 409)
(410 411)
(412 413)
(409 5)
(413 408)
(8 412)
(9 8)
(414 415)
(13 415)
(27 28)
(33 34)
(416 417)
(418 416)
(419 420)
(36 421)
(420 41)
(417 38)
(422 423)
(43 44)
(424 425)
(425 426)
(30 427)
(426 428)
(427 424)
(429 430)
(431 47)
(52 44)
(432 53)
(49 433)
(434 46)
(435 54)
(436 63)
(62 437)
(438 439)
(68 440)
(42 441)
(442 443)
(444 442)
(443 445)
(445 446)
(72 447)
(447 448)
(80 449)
(450 451)
(452 453)
(454 455)
(456 457)
(457 62)
(81 458)
(459 67)
(460 461)
(38 462)
(463 40)
(39 86)
(40 37)
(37 39)
(464 465)
(462 464)
(94 98)
(466 467)
(468 469)
(470 471)
(108 472)
(473 107)
(474 111)
(475 92)
(476 113)
(477 476)
(478 479)
(114 480)
(481 115)
(118 478)
(120 482)
(483 484)
(485 103)
(47 486)
(487 122)
(488 119)
(489 124)
(121 102)
(490 491)
(492 493)
(136 494)
(491 495)
(495 93)
(496 497)
(498 499)
(500 501)
(83 22)
(502 20)
(79 502)
(59 84)
(14 80)
(61 106)
(117 60)
(23 25)
(25 24)
(95 97)
(97 96)
(99 101)
(101 94)
(140 141)
(4 503)
(410 504)
(10 11)
(505 12)
(11 505)
(13 414)
(506 13)
(507 506)
(15 507)
(508 16)
(0 509)
(14 0)
(510 511)
(13 512)
(18 19)
(19 513)
(512 510)
(511 514)
(514 18)
(515 14)
(513 516)
(517 20)
(516 517)
(20 515)
(518 10)
(519 21)
(21 518)
(22 519)
(520 521)
(521 522)
(35 523)
(523 524)
(524 525)
(525 520)
(526 36)
(421 526)
(37 527)
(528 37)
(529 463)
(39 528)
(36 39)
(40 529)
(527 40)
(530 531)
(44 530)
(531 46)
(1 48)
(9 1)
(1 8)
(44 50)
(50 532)
(52 43)
(51 52)
(533 422)
(534 535)
(536 431)
(54 434)
(435 537)
(533 423)
(538 539)
(539 49)
(46 54)
(47 536)
(59 22)
(60 61)
(2 60)
(61 59)
(540 541)
(63 542)
(436 542)
(64 543)
(543 65)
(437 544)
(454 545)
(546 547)
(548 438)
(547 548)
(64 549)
(550 551)
(42 552)
(552 65)
(553 554)
(554 555)
(555 550)
(551 556)
(557 64)
(62 558)
(69 557)
(559 545)
(45 559)
(544 558)
(448 72)
(79 560)
(449 12)
(560 561)
(562 79)
(80 562)
(563 78)
(561 563)
(455 451)
(564 81)
(456 62)
(564 458)
(460 565)
(459 566)
(566 67)
(461 565)
(83 84)
(84 567)
(41 419)
(568 102)
(569 568)
(105 83)
(567 106)
(469 570)
(570 468)
(571 470)
(471 571)
(108 572)
(572 472)
(573 574)
(110 92)
(92 575)
(576 92)
(111 577)
(578 474)
(578 111)
(480 579)
(113 473)
(113 477)
(0 113)
(114 579)
(580 2)
(106 117)
(581 30)
(582 482)
(118 583)
(121 584)
(91 121)
(103 122)
(122 485)
(47 585)
(585 486)
(586 487)
(587 466)
(588 589)
(119 590)
(123 126)
(587 467)
(121 127)
(117 591)
(592 499)
(593 594)
(595 134)
(135 595)
(596 593)
(493 596)
(597 136)
(598 597)
(599 135)
(134 600)
(137 600)
(601 592)
(93 601)
(602 603)
(42 599)
(93 602)
(497 498)
(591 580)
(12 0)
(117 2)
(20 79)
(148 3)
(3 149)
(150 151)
(152 4)
(6 153)
(149 6)
(151 152)
(7 150)
(154 7)
(5 154)
(155 156)
(153 157)
(156 9)
(157 158)
(158 155)
(3 159)
(160 161)
(162 163)
(164 162)
(165 164)
(163 166)
(167 160)
(161 10)
(166 168)
(169 6)
(6 3)
(12 169)
(17 170)
(171 172)
(170 171)
(173 174)
(174 175)
(24 176)
(177 178)
(26 179)
(27 29)
(29 28)
(30 180)
(180 181)
(181 30)
(176 182)
(182 183)
(183 184)
(179 27)
(31 185)
(184 31)
(186 187)
(188 186)
(28 23)
(32 33)
(189 32)
(34 173)
(190 26)
(178 190)
(191 35)
(192 193)
(193 188)
(185 192)
(194 195)
(196 197)
(198 199)
(197 200)
(38 36)
(195 201)
(41 191)
(202 203)
(203 177)
(175 204)
(205 189)
(204 206)
(206 202)
(207 208)
(8 209)
(210 8)
(42 211)
(212 45)
(213 212)
(214 213)
(215 43)
(7 5)
(8 215)
(208 216)
(217 210)
(211 214)
(209 217)
(216 207)
(26 218)
(47 219)
(220 30)
(218 220)
(221 25)
(222 49)
(223 224)
(224 225)
(226 222)
(227 221)
(31 227)
(228 31)
(9 48)
(48 228)
(25 29)
(219 226)
(225 8)
(29 26)
(229 230)
(231 232)
(233 234)
(46 235)
(49 47)
(236 223)
(53 46)
(237 55)
(55 238)
(238 239)
(240 241)
(241 242)
(243 244)
(55 243)
(8 236)
(245 246)
(247 55)
(248 249)
(56 250)
(142 57)
(57 56)
(244 56)
(251 58)
(58 248)
(246 251)
(252 240)
(58 252)
(249 58)
(253 57)
(43 8)
(8 51)
(239 247)
(57 237)
(250 253)
(254 8)
(52 254)
(51 50)
(242 245)
(235 53)
(255 233)
(232 256)
(256 255)
(159 257)
(3 258)
(257 3)
(259 260)
(62 259)
(260 261)
(258 148)
(4 7)
(6 262)
(63 6)
(9 263)
(187 9)
(263 63)
(262 264)
(265 64)
(64 65)
(66 266)
(266 67)
(64 68)
(65 42)
(267 268)
(45 267)
(268 69)
(69 64)
(78 75)
(6 12)
(264 6)
(68 269)
(269 265)
(67 270)
(271 272)
(273 271)
(272 274)
(270 273)
(168 275)
(275 81)
(261 62)
(81 165)
(67 66)
(276 277)
(277 167)
(278 279)
(279 67)
(280 278)
(274 280)
(10 276)
(281 82)
(282 281)
(82 283)
(283 284)
(284 82)
(85 282)
(285 85)
(86 38)
(286 287)
(82 286)
(32 205)
(288 41)
(201 194)
(200 196)
(289 288)
(33 87)
(87 34)
(30 290)
(290 291)
(291 30)
(87 32)
(35 289)
(88 285)
(292 293)
(36 86)
(199 292)
(294 88)
(293 198)
(89 294)
(295 89)
(296 90)
(297 298)
(299 296)
(90 295)
(300 87)
(301 297)
(287 301)
(298 300)
(302 42)
(303 91)
(91 304)
(92 305)
(91 306)
(307 302)
(98 308)
(309 310)
(305 311)
(312 313)
(313 314)
(308 92)
(93 309)
(310 307)
(94 100)
(100 98)
(311 93)
(314 95)
(96 99)
(102 315)
(315 316)
(316 91)
(317 104)
(104 105)
(318 317)
(107 318)
(319 107)
(66 108)
(108 320)
(145 321)
(321 109)
(322 323)
(323 109)
(17 324)
(325 326)
(327 328)
(326 329)
(330 325)
(112 17)
(324 112)
(112 331)
(332 91)
(110 333)
(333 92)
(101 97)
(100 101)
(97 334)
(331 114)
(334 332)
(335 110)
(115 100)
(336 335)
(92 115)
(114 336)
(337 338)
(338 339)
(340 337)
(304 341)
(306 312)
(341 303)
(342 47)
(91 118)
(90 299)
(343 90)
(89 343)
(344 342)
(345 344)
(119 345)
(118 120)
(88 89)
(85 88)
(30 85)
(230 116)
(339 231)
(116 346)
(346 340)
(116 229)
(234 116)
(103 124)
(347 125)
(348 103)
(47 119)
(126 349)
(350 351)
(127 123)
(351 352)
(353 126)
(123 102)
(102 127)
(352 354)
(355 129)
(125 129)
(129 128)
(129 347)
(120 91)
(128 356)
(91 102)
(354 350)
(356 355)
(349 353)
(124 348)
(357 112)
(358 359)
(130 360)
(361 130)
(362 93)
(131 363)
(364 362)
(365 366)
(360 367)
(368 358)
(369 357)
(370 131)
(359 361)
(132 368)
(363 132)
(366 369)
(367 133)
(92 371)
(371 365)
(93 92)
(372 17)
(172 373)
(373 372)
(374 66)
(134 375)
(135 134)
(108 374)
(376 108)
(136 134)
(134 137)
(377 378)
(379 138)
(138 380)
(380 376)
(381 93)
(137 382)
(42 135)
(382 381)
(383 379)
(384 383)
(133 377)
(378 385)
(385 384)
(93 364)
(375 386)
(386 136)
(387 388)
(329 389)
(390 327)
(109 370)
(391 108)
(108 138)
(328 392)
(388 330)
(389 387)
(393 133)
(133 130)
(392 390)
(138 394)
(320 391)
(132 395)
(396 397)
(398 132)
(130 399)
(394 400)
(397 393)
(401 396)
(399 402)
(402 398)
(395 131)
(131 322)
(400 401)
(403 404)
(404 405)
(405 406)
(406 403)
(75 19)
(16 18)
(107 22)
(147 105)
(407 19)
(78 407)
(319 104)
(104 21)
(21 107)
(113 140)
(141 113)
(16 15)
(23 24)
(52 50)
(142 56)
(70 71)
(72 70)
(71 143)
(73 74)
(74 72)
(77 73)
(144 77)
(76 144)
(95 96)
(99 94)
(109 145)
(125 146)
(128 146)
(125 128)
(75 18)
(15 75)
(71 76)
(76 143)
(70 76)
(72 76)
(74 76)
(73 76)
(77 76)
(15 139)
(139 75)
(16 139)
(139 76)
(76 16)
(22 147)
(140 11)
(11 141)
)

// concaveStart mixedStart nonFeatureStart
0 3 142
// internalStart flatStart openStart multipleStart
102 274 274 692
// normals

826
(
(0.317969 0.0403308 0.947243)
(0.104488 -0.566994 0.817068)
(0.104488 -0.566994 0.817068)
(0.104488 -0.566994 0.817068)
(0.0910907 0.838126 -0.537818)
(-0.16017 0.963308 0.215366)
(0.16017 -0.963308 -0.215366)
(0.282508 -0.544208 -0.789954)
(0.437602 -0.417832 -0.796192)
(-0.293748 0.536061 0.791423)
(-0.258622 0.336625 0.905427)
(-0.270556 0.342439 0.899742)
(-0.271704 0.342997 0.899183)
(-0.304247 0.024695 0.952273)
(-0.364139 0.265041 0.892836)
(-0.364139 0.265041 0.892836)
(-0.364139 0.265041 0.892836)
(-0.364139 0.265041 0.892836)
(-0.364139 0.265041 0.892836)
(-0.297105 0.0194109 0.954648)
(-0.363169 0.262384 0.894015)
(-0.363169 0.262384 0.894015)
(-0.363169 0.262384 0.894015)
(-0.363169 0.262384 0.894015)
(-0.363169 0.262384 0.894015)
(-0.310447 0.0317388 0.950061)
(-0.362735 0.26107 0.894576)
(-0.362735 0.26107 0.894576)
(-0.362735 0.26107 0.894576)
(-0.362735 0.26107 0.894576)
(-0.362735 0.26107 0.894576)
(-0.332735 0.167992 0.927937)
(-0.363898 0.264089 0.893216)
(-0.363898 0.264089 0.893216)
(-0.363898 0.264089 0.893216)
(-0.363898 0.264089 0.893216)
(-0.363898 0.264089 0.893216)
(-0.331316 0.15039 0.931457)
(-0.362494 0.260602 0.89481)
(-0.362494 0.260602 0.89481)
(-0.362494 0.260602 0.89481)
(-0.362494 0.260602 0.89481)
(-0.362494 0.260602 0.89481)
(-0.337715 0.192793 0.921292)
(-0.36356 0.263299 0.893587)
(-0.36356 0.263299 0.893587)
(-0.36356 0.263299 0.893587)
(-0.36356 0.263299 0.893587)
(-0.36356 0.263299 0.893587)
(-0.367321 0.272684 0.889224)
(-0.363516 0.263202 0.893633)
(-0.363516 0.263202 0.893633)
(-0.363516 0.263202 0.893633)
(-0.363516 0.263202 0.893633)
(-0.363516 0.263202 0.893633)
(-0.367927 0.272449 0.889045)
(0.988277 -0.0615582 0.139711)
(0.672943 0.72514 0.146012)
(-0.672943 -0.72514 -0.146012)
(0.973973 0.177216 -0.141321)
(0.455891 0.874274 0.16676)
(-0.455891 -0.874274 -0.16676)
(0.67804 0.724877 -0.121718)
(0.623769 0.748154 -0.226224)
(0.727484 0.686123 -0.00184616)
(0.260564 0.337574 0.904517)
(0.272591 0.343427 0.898751)
(0.272591 0.343427 0.898751)
(0.268899 0.341432 0.900621)
(0.263777 0.341158 0.902238)
(0.0151609 -0.342867 0.939262)
(0 -0.239441 0.970911)
(-0.0339411 0.466936 -0.88364)
(0.0942605 -0.551809 0.828626)
(0.10395 -0.566192 0.817693)
(0.10395 -0.566192 0.817693)
(0.10395 -0.566192 0.817693)
(-0.363532 0.263399 0.893569)
(-0.363045 0.26215 0.894134)
(0.363174 -0.262315 -0.894033)
(0.363174 -0.262315 -0.894033)
(-0.0339529 0.467037 -0.883586)
(-0.0861042 0.608294 0.789028)
(0.211515 0.833697 -0.510109)
(-0.0868014 0.605802 0.790866)
(0 0.995714 0.0924812)
(0.00520799 0.996809 0.0796516)
(-0.00520799 -0.996809 -0.0796516)
(0.0052225 0.999587 0.0282581)
(-0.868622 0.400127 0.292221)
(-0.153979 0.841984 0.517062)
(-0.160305 0.900444 0.404355)
(-0.857575 0.405661 0.316234)
(-0.150204 0.863286 0.481847)
(-0.175814 0.85631 0.485615)
(-0.155236 0.840317 0.519394)
(-0.484027 0.858735 0.168202)
(-0.791411 0.531835 0.301363)
(-0.530617 0.839602 0.116248)
(-0.679126 0.691477 0.246267)
(-0.55794 0.806655 0.194966)
(-0.88683 0.428164 0.173806)
(-0.899596 0.435346 -0.03466)
(-0.860215 0.509267 -0.0260131)
(-0.822104 0.569261 0.00936694)
(-0.790336 0.610811 0.0477334)
(-0.89845 0.434265 -0.0648231)
(-0.883561 0.466342 -0.0429529)
(-0.924247 0.377566 -0.0566744)
(-0.912111 0.400774 -0.0862135)
(-0.862093 0.405257 0.304241)
(-0.901975 0.348436 0.255015)
(0.772606 0.454674 0.443117)
(0.642662 0.70894 0.290499)
(0.80187 0.594401 -0.0607648)
(0.269392 0.533951 -0.801452)
(-0.050831 0.88932 -0.454451)
(0.620056 0.487341 -0.614841)
(0.690727 0.304194 -0.65602)
(-0.14239 0.975848 0.165665)
(0.227738 0.828059 -0.512302)
(-0.195802 0.937909 -0.286336)
(-0.30097 0.929848 -0.21166)
(-0.356326 0.917045 -0.179056)
(0.554819 0.549615 -0.62458)
(-0.377606 0.918721 -0.115613)
(-0.364951 0.922291 -0.127241)
(-0.764811 0.614964 0.19205)
(0.217425 0.800196 -0.558939)
(0.413861 0.439106 -0.797437)
(0.323563 0.564687 -0.759233)
(0.444772 0.445611 -0.776922)
(0.682485 0.32928 -0.652525)
(-0.410069 0.72145 0.557991)
(-0.558428 0.829551 -0.00187114)
(-0.682717 0.726799 0.0752374)
(-0.431938 0.899814 -0.0613534)
(0.00415065 0.913617 0.406555)
(0.157213 0.931949 -0.326735)
(0.153266 0.874135 -0.460867)
(0.146429 0.972625 -0.180444)
(-0.0335916 0.0326657 0.998902)
(-0.0517049 0.84991 0.524385)
(-0.25395 0.610217 0.75043)
(0.625824 0.427374 -0.652453)
(0.60108 0.408374 -0.686974)
(0.0372851 0.728736 -0.683779)
(0.616438 0.461952 -0.637655)
(0.584634 0.378976 -0.717343)
(-0.936455 -0.246653 0.24943)
(-0.97283 -0.0410362 0.227854)
(-0.974196 -0.143955 0.173836)
(-0.0656678 0.821262 -0.566759)
(-0.90398 0.340252 -0.258936)
(-0.805443 0.466459 -0.365619)
(-0.638689 0.60848 -0.470987)
(-0.99095 -0.108427 0.0791245)
(-0.797208 0.350271 -0.4917)
(-0.980044 -0.165809 0.109639)
(-0.906256 -0.32334 0.272308)
(-0.965322 -0.127934 0.227565)
(-0.370524 0.755579 -0.540196)
(-0.964148 -0.0949117 0.247812)
(-0.929162 -0.267577 0.255069)
(0.339573 0.879859 -0.332474)
(-0.111794 0.686828 0.718171)
(0.0615719 0.911751 -0.406101)
(0.178984 0.918121 -0.353579)
(-0.0719322 0.949577 -0.305172)
(-0.173297 0.636423 0.751621)
(-0.419224 0.740166 0.525742)
(-0.465996 0.878904 0.101862)
(-0.0620182 0.678419 0.732053)
(-0.267172 0.940169 -0.211427)
(-0.356479 0.920097 -0.162308)
(-0.429431 0.893393 -0.132051)
(-0.852208 0.493005 -0.175176)
(-0.667973 0.722958 -0.176476)
(0.0976242 0.92884 -0.357389)
(-0.0575654 0.694686 0.717006)
(-0.433896 0.894436 -0.108248)
(0.294426 0.888951 -0.350826)
(0.0533542 0.818675 0.571773)
(0.0550664 0.801226 0.595823)
(0.0564507 0.814867 0.576892)
(-0.522128 0.587023 0.618697)
(-0.25734 0.372174 0.891775)
(-0.309041 0.404459 0.86076)
(-0.535202 0.555547 0.636339)
(-0.257539 0.3327 0.907185)
(-0.257005 0.332625 0.907364)
(-0.499977 0.268253 0.823446)
(-0.349723 0.338894 0.87341)
(-0.242188 0.32867 0.912864)
(-0.274948 0.361575 0.89088)
(-0.295665 0.359201 0.885187)
(-0.258525 0.331485 0.907349)
(-0.266543 0.334711 0.903838)
(-0.256692 0.346685 0.902175)
(-0.263374 0.336557 0.904082)
(-0.248103 0.349436 0.903515)
(-0.429463 0.301307 0.851338)
(-0.387681 0.318066 0.865181)
(-0.349572 0.331267 0.876391)
(-0.27741 0.349097 0.895084)
(0.391107 0.436085 0.810472)
(-0.326354 0.338362 0.882612)
(-0.299243 0.344729 0.889728)
(-0.27293 0.349864 0.896161)
(-0.501313 0.308462 0.808416)
(-0.534893 0.388764 0.750168)
(-0.256739 0.420466 0.870226)
(-0.460966 0.620814 0.634114)
(0.0255471 0.815776 0.577804)
(0.0308178 0.800621 0.598378)
(-0.00926296 0.819585 0.572883)
(-0.828748 0.538783 0.151296)
(-0.885795 0.408789 0.219678)
(-0.404529 0.805656 -0.432752)
(-0.466459 0.758187 -0.455596)
(-0.332288 0.841826 -0.425339)
(-0.854818 0.493012 0.161946)
(-0.370939 0.872632 -0.317676)
(-0.756875 0.477549 0.446191)
(-0.65323 0.752134 0.087093)
(-0.750081 0.606048 0.264733)
(-0.85399 0.478686 0.203863)
(-0.362482 0.642767 -0.674876)
(-0.192691 0.96917 -0.153554)
(-0.227068 0.917797 0.325712)