/*--------------------------------*- C++ -*----------------------------------*\
| =========                 |                                                 |
| \\      /  F ield         | OpenFOAM: The Open Source CFD Toolbox           |
|  \\    /   O peration     | Version:  2.2.x                                 |
|   \\  /    A nd           | Web:      www.OpenFOAM.org                      |
|    \\/     M anipulation  |                                                 |
\*---------------------------------------------------------------------------*/
FoamFile
{
    version     2.0;
    format      ascii;
    class       extendedFeatureEdgeMesh;
    location    "constant/extendedFeatureEdgeMesh";
    object      femur_right_front.extendedFeatureEdgeMesh;
}
// * * * * * * * * * * * * * * * * * * * * * * * * * * * * * * * * * * * * * //

// points

63
(
(1.63853 3.55747 0.536602)
(1.6718 3.50282 0.536602)
(1.70571 3.46511 0.93071)
(1.69681 3.4719 0.941193)
(1.65881 3.54924 0.97293)
(1.67881 3.49319 0.960358)
(1.69606 3.47256 0.942042)
(1.69455 3.47437 0.94365)
(1.68076 3.49086 0.958288)
(1.66463 3.52407 0.971659)
(1.66321 3.52883 0.972345)
(1.67665 3.49762 0.962155)
(1.66825 3.51484 0.969135)
(1.78608 3.55032 0.796602)
(1.76586 3.55029 0.665729)
(1.73485 3.54001 0.536602)
(1.73608 3.55032 0.536602)
(1.7366 3.45637 0.890333)
(1.73164 3.45658 0.897131)
(1.73416 3.5369 0.536602)
(1.73049 3.52712 0.536602)
(1.71582 3.50989 0.536602)
(1.69521 3.501 0.536602)
(1.71669 3.51091 0.536602)
(1.67928 3.46081 0.796602)
(1.67771 3.47988 0.666455)
(1.70913 3.4633 0.926467)
(1.66167 3.53398 0.973087)
(1.66602 3.51942 0.970989)
(1.73461 3.53812 0.536602)
(1.73477 3.45594 0.892983)
(1.68366 3.50042 0.536602)
(1.7763 3.54949 0.731387)
(1.67843 3.46882 0.731361)
(1.71673 3.51096 0.536602)
(1.68411 3.50042 0.536602)
(1.69504 3.50117 0.536602)
(1.73463 3.53899 0.536602)
(1.73504 3.45643 0.892475)
(1.93178 3.55436 0.0916016)
(1.93161 3.55431 0.0916016)
(1.93165 3.54566 0.0916016)
(1.93182 3.54692 0.0916016)
(1.71564 3.45986 0.91838)
(1.76968 3.52953 0.701638)
(1.63927 3.55944 0.601465)
(1.64497 3.52477 0.536602)
(1.63891 3.54087 0.536602)
(1.66365 3.50642 0.536602)
(1.65635 3.51142 0.536602)
(1.63526 3.56111 0.666402)
(1.62608 3.55032 0.796602)
(1.65007 3.5176 0.536602)
(1.64585 3.5498 0.929745)
(1.63339 3.55032 0.886513)
(1.78658 3.51966 0.804136)
(1.77507 3.48211 0.830092)
(1.78453 3.50574 0.811027)
(1.75273 3.46017 0.867002)
(1.76492 3.46888 0.847731)
(1.76693 3.54788 0.671059)
(1.77039 3.51835 0.721249)
(1.77164 3.52879 0.714116)
)

// edges

76
(
(2 43)
(44 14)
(0 16)
(13 4)
(20 23)
(0 45)
(46 47)
(1 48)
(48 49)
(47 0)
(50 51)
(52 46)
(49 52)
(45 50)
(53 4)
(51 54)
(5 6)
(8 7)
(10 9)
(12 11)
(54 53)
(55 13)
(56 57)
(16 15)
(14 16)
(17 58)
(59 56)
(43 18)
(57 55)
(58 59)
(19 20)
(21 22)
(14 60)
(61 62)
(24 25)
(2 26)
(3 2)
(4 27)
(6 3)
(7 6)
(5 8)
(9 28)
(27 10)
(11 5)
(28 12)
(15 29)
(30 17)
(31 1)
(13 32)
(18 30)
(29 19)
(33 24)
(22 31)
(25 33)
(23 21)
(20 34)
(34 23)
(32 14)
(35 1)
(36 35)
(22 36)
(37 19)
(15 37)
(18 38)
(38 17)
(3 26)
(7 3)
(11 8)
(9 12)
(4 10)
(13 14)
(39 40)
(40 41)
(41 42)
(42 39)
(20 21)
)

// concaveStart mixedStart nonFeatureStart
0 0 24
// internalStart flatStart openStart multipleStart
5 34 34 75
// normals

92
(
(-0.742518 0.632073 0.221698)
(0 0 1)
(0 0 -1)
(0.467399 0.875495 0.122666)
(0.659906 -0.333033 0.673508)
(0.500393 0.855999 -0.129892)
(0.943856 0.173731 -0.280986)
(0.55775 0.816623 -0.148464)
(-0.093931 0.615947 -0.782168)
(0.274882 0.756684 -0.593185)
(0.910389 0.311299 -0.272552)
(0.910382 0.311328 -0.272544)
(0.828923 0.503197 -0.244296)
(0.828916 0.503223 -0.244266)
(-0.96722 0.122321 0.222538)
(-0.149804 0.987048 0.0573988)
(0.195292 0.967285 0.161928)
(-0.986641 0.0702625 0.146978)
(0.151256 0.987741 -0.0385974)
(-0.915205 0.340664 0.215286)
(0.404483 0.908353 0.106244)
(-0.0491764 0.983051 0.176615)
(0.257076 0.953117 0.159626)
(0 0 -1)
(-0.98344 -0.0935198 0.155238)
(0 0 -1)
(0 0 -1)
(0 0 -1)
(0 0 -1)
(0 0 -1)
(0.800535 0.155744 0.578695)
(0.800636 0.155098 0.578728)
(0.8005 0.155801 0.578728)
(0.800493 0.155817 0.578733)
(0.800499 0.155805 0.578728)
(0.800502 0.155795 0.578726)
(0.800504 0.155784 0.578726)
(0.066985 0.997698 -0.0105989)
(0 -0 1)
(0 0 1)
(0.363456 0.926089 -0.101286)
(-0.97729 0.121122 0.173877)
(-0.736693 0.548566 0.395422)
(-0 0 -1)
(0.0730328 0.997192 -0.0165907)
(0.0066478 0.999918 0.0109228)
(0.999881 0.0100643 -0.0116982)
(0.103583 0.994123 -0.0314656)
(0.935909 0.352233 0.00237821)
(0 0 -1)
(0.400978 0.905082 0.141576)
(0 0 -1)
(0.56163 0.820731 0.10475)
(0 0 -1)
(0.999707 0.0228254 -0.00805009)
(0.997397 0.0108675 0.0712844)
(0 0.996586 0.0825665)
(0.812823 0.578122 0.0713716)
(0 0 -1)
(0.698637 0.709818 0.0898048)
(0 0 -1)
(0.99806 0.0108642 0.0613071)
(0.0885827 0.995866 -0.0200992)
(0.989083 0.123455 -0.0804568)
(0 1 1.06068e-05)
(0.661665 0.72462 -0.192679)
(0.800505 0.155788 0.578725)
(0.910387 0.311308 -0.272548)
(0.8005 0.155808 0.578726)
(0.82891 0.503233 -0.244263)
(0.800503 0.155792 0.578726)
(0.948825 0.161265 -0.271523)
(0.00606335 0.999928 0.0103072)
(-0.986192 0.0239298 0.163866)
(0.82646 0.14723 0.543404)
(-0.840306 0.501867 0.204979)
(0.786098 0.165496 0.595534)
(-0.967959 0.114841 0.22331)
(-0.149735 0.987059 0.0573871)
(-0.641139 0.743805 0.188932)
(0.802412 0.153599 0.576665)
(0.151227 0.987746 -0.038588)
(0.800507 0.155788 0.578721)
(-0.956294 0.230181 0.180327)
(-0.417378 0.897647 0.141514)
(0.801994 0.154005 0.577138)
(-0.914291 0.343194 0.215152)
(0 0 -1)
(-0.387448 0.897975 0.208627)
(0 0 -1)
(-0.664851 0.474254 0.57711)
(-0.962973 0.221042 0.154351)
)

// edgeNormals

76
(
2(40 4)
2(41 42)
2(43 44)
2(36 45)
2(1 23)
2(46 47)
2(48 49)
2(50 51)
2(52 53)
2(54 43)
2(55 56)
2(57 58)
2(59 60)
2(61 62)
2(6 45)
2(63 64)
2(65 8)
2(9 66)
2(67 68)
2(69 70)
2(71 72)
2(73 74)
2(75 76)
2(77 29)
2(77 44)
2(78 31)
2(79 80)
2(81 82)
2(83 74)
2(84 85)
2(86 87)
2(88 89)
2(24 42)
2(90 91)
1(3)
1(4)
1(5)
1(6)
1(7)
1(8)
1(9)
1(10)
1(11)
1(12)
1(13)
1(14)
1(15)
1(16)
1(17)
1(18)
1(19)
1(20)
1(21)
1(22)
1(1)
1(23)
1(23)
1(24)
1(25)
1(26)
1(27)
1(28)
1(29)
1(30)
1(31)
1(32)
1(33)
1(34)
1(35)
1(36)
1(37)
1(38)
1(38)
1(39)
1(39)
3(0 1 2)
)

// featurePointNormals

24
(
5(43 44 46 47 54)
3(50 51 16)
3(40 4 5)
3(5 7 32)
3(36 45 6)
4(65 8 9 12)
3(65 8 7)
3(9 66 8)
2(9 66)
2(67 68)
2(67 68)
2(69 70)
2(69 70)
6(36 45 73 74 17 37)
6(41 42 77 44 24 37)
3(77 29 14)
3(43 44 77)
2(78 31)
2(81 82)
3(86 87 19)
4(1 23 86 0)
4(88 89 1 0)
3(88 89 21)
2(1 23)
)

// featurePointEdges

24
(
3(5 9 2)
3(7 47 58)
3(0 35 36)
4(36 38 65 66)
4(14 3 37 69)
3(16 40 43)
3(16 38 39)
3(17 39 66)
3(17 40 67)
3(18 41 68)
3(18 42 69)
3(19 43 67)
3(19 44 68)
4(21 3 48 70)
5(24 1 32 57 70)
3(23 45 62)
3(23 24 2)
3(25 46 64)
3(27 49 63)
3(30 50 61)
4(30 75 4 55)
3(31 75 54)
3(31 52 60)
3(4 54 56)
)

// regionEdges

42
(
75
34
35
36
37
38
39
40
41
42
43
44
45
46
47
48
49
50
51
52
53
54
55
56
57
58
59
60
61
62
63
64
65
66
67
68
69
70
71
72
73
74
)



// ************************************************************************* //
