/*--------------------------------*- C++ -*----------------------------------*\
| =========                 |                                                 |
| \\      /  F ield         | OpenFOAM: The Open Source CFD Toolbox           |
|  \\    /   O peration     | Version:  2.2.x                                 |
|   \\  /    A nd           | Web:      www.OpenFOAM.org                      |
|    \\/     M anipulation  |                                                 |
\*---------------------------------------------------------------------------*/
FoamFile
{
    version     2.0;
    format      ascii;
    class       extendedFeatureEdgeMesh;
    location    "constant/extendedFeatureEdgeMesh";
    object      femur_left_back.extendedFeatureEdgeMesh;
}
// * * * * * * * * * * * * * * * * * * * * * * * * * * * * * * * * * * * * * //

// points

55
(
(1.94236 3.56785 0.969541)
(1.94119 3.54924 0.97293)
(1.93038 3.61727 0.939658)
(1.90784 3.63939 0.902535)
(1.93775 3.59998 0.954517)
(1.94168 3.58015 0.965293)
(1.9417 3.58016 0.965315)
(1.9202 3.63056 0.922009)
(1.97392 3.55032 0.796602)
(1.96474 3.56111 0.666402)
(1.96147 3.55747 0.536602)
(1.86539 3.53812 0.536602)
(1.85439 3.62976 0.831195)
(1.84314 3.61875 0.818591)
(1.83301 3.6048 0.808337)
(1.82448 3.5882 0.801003)
(1.86613 3.63755 0.845332)
(1.81804 3.56977 0.797065)
(1.81392 3.55032 0.796602)
(1.88983 3.64362 0.876481)
(1.95465 3.57956 0.601411)
(1.94235 3.56506 0.970271)
(1.94228 3.56655 0.969778)
(1.96846 3.58484 0.796602)
(1.97255 3.56784 0.796602)
(1.89392 3.64532 0.796602)
(1.90058 3.62476 0.666244)
(1.89717 3.63507 0.73146)
(1.93178 3.55436 0.0916016)
(1.93161 3.55431 0.0916016)
(1.93165 3.54566 0.0916016)
(1.93182 3.54692 0.0916016)
(1.9517 3.58573 0.922281)
(1.96073 3.55944 0.601465)
(1.96078 3.55733 0.536602)
(1.95415 3.5498 0.929745)
(1.96661 3.55032 0.886513)
(1.91292 3.60032 0.536602)
(1.92189 3.59947 0.536602)
(1.93039 3.597 0.536602)
(1.95126 3.5814 0.536602)
(1.95609 3.57396 0.536602)
(1.93823 3.59307 0.536602)
(1.94525 3.58782 0.536602)
(1.83411 3.55029 0.665775)
(1.86392 3.55032 0.536602)
(1.86491 3.56035 0.536602)
(1.86775 3.56972 0.536602)
(1.87225 3.57821 0.536602)
(1.87821 3.58562 0.536602)
(1.82368 3.54945 0.731455)
(1.903 3.5993 0.536602)
(1.88546 3.59174 0.536602)
(1.89378 3.59637 0.536602)
(1.9631 3.55929 0.601502)
)

// edges

75
(
(0 5)
(32 5)
(10 33)
(33 9)
(34 10)
(11 34)
(35 1)
(36 35)
(6 32)
(8 36)
(37 38)
(38 39)
(9 8)
(40 41)
(42 43)
(43 40)
(41 10)
(39 42)
(44 11)
(11 45)
(46 47)
(48 49)
(50 44)
(47 48)
(18 50)
(51 37)
(45 46)
(52 53)
(49 52)
(53 51)
(10 54)
(54 9)
(1 22)
(22 0)
(23 24)
(0 6)
(24 8)
(25 26)
(8 23)
(27 25)
(26 27)
(10 9)
(28 29)
(29 30)
(30 31)
(31 28)
(3 19)
(4 2)
(6 5)
(6 4)
(2 7)
(7 3)
(10 20)
(9 20)
(12 13)
(14 15)
(15 17)
(17 18)
(16 12)
(13 14)
(19 16)
(21 18)
(18 1)
(21 17)
(5 17)
(5 15)
(6 15)
(4 15)
(4 14)
(2 14)
(2 13)
(7 13)
(7 12)
(7 16)
(3 16)
)

// concaveStart mixedStart nonFeatureStart
0 0 19
// internalStart flatStart openStart multipleStart
6 32 32 46
// normals

105
(
(-0.173269 -0.984056 -0.0401411)
(-0.800496 0.155836 0.578724)
(-0.800496 0.155836 0.578724)
(-0.823852 -0.528269 -0.205424)
(-0.800501 0.155805 0.578725)
(-0.800501 0.155805 0.578725)
(-0.796482 0.157729 0.583727)
(-0.457906 0.88896 0.00853288)
(-0.797449 0.174886 0.577485)
(-0.797449 0.174886 0.577485)
(-0.912928 -0.319916 -0.253408)
(-0.800503 0.155781 0.578729)
(-0.800503 0.155781 0.578729)
(-0.674303 -0.722019 -0.154933)
(-0.800504 0.155772 0.57873)
(-0.800504 0.155772 0.57873)
(-0.473656 -0.875437 -0.0962274)
(-0.800494 0.155852 0.578722)
(-0.800494 0.155852 0.578722)
(-0.950739 -0.309941 0.00571077)
(-0.957325 -0.289006 -0.00211816)
(-0.922588 -0.384285 0.0340138)
(-0.955268 -0.288202 0.0663598)
(-0.957334 -0.28067 0.0688185)
(-0.922588 -0.384285 0.0340138)
(0.676528 -0.73542 0.0383042)
(-0.800499 0.155839 0.578718)
(-0.800499 0.155839 0.578718)
(0.862894 -0.492839 0.11191)
(-0.800499 0.155823 0.578723)
(-0.800499 0.155823 0.578723)
(0.927748 -0.350944 0.126974)
(-0.800507 0.155754 0.57873)
(-0.800507 0.155754 0.57873)
(0.966835 -0.208394 0.147654)
(-0.8005 0.155827 0.57872)
(-0.8005 0.155827 0.57872)
(0.544861 -0.838472 0.00958165)
(-0.800506 0.155783 0.578724)
(-0.800506 0.155783 0.578724)
(0.78323 -0.618111 0.06701)
(-0.800504 0.155773 0.57873)
(-0.800504 0.155773 0.57873)
(0.31301 -0.948253 -0.0532982)
(-0.800503 0.155791 0.578726)
(-0.800503 0.155791 0.578726)
(-0.0223971 -0.999699 0.010042)
(-0.8005 0.155827 0.57872)
(-0.8005 0.155827 0.57872)
(-0.957803 0.00804207 -0.287311)
(-0.957789 0.00815823 -0.287356)
(-0.969705 -0.233467 -0.0718713)
(-0.994171 -0.0776924 -0.0747585)
(-0.124162 -0.981097 0.148434)
(-0.986124 -0.156039 0.0566609)
(0.0208744 -0.987468 0.156433)
(0.0729797 -0.984497 0.159497)
(0.197272 -0.98009 0.022541)
(0 -0 1)
(0 0 1)
(-0.951536 -0.145961 -0.270692)
(-0.945219 -0.212708 -0.24762)
(0.0653716 0.997421 -0.0296401)
(0.0653716 0.997421 -0.0296401)
(0 0 -1)
(0.197298 -0.980084 0.0225401)
(0 0 -1)
(0.0807735 -0.996668 0.0113627)
(-0.960437 -0.0274308 -0.277144)
(0.0809628 -0.996653 0.0113195)
(-0.995555 -0.0480733 -0.0809851)
(0.0936613 -0.995575 0.00760842)
(-0.0935193 -0.979973 0.175805)
(0 0 -1)
(-0.275665 -0.948689 0.154911)
(0 0 -1)
(0.348552 -0.931746 -0.101791)
(-0.838129 -0.544296 0.0357995)
(0 0 -1)
(-0.595565 -0.796043 0.107787)
(0 0 -1)
(-0.728266 -0.682315 0.063836)
(0 0 -1)
(-0.444208 -0.886166 0.131865)
(0 0 -1)
(0.967796 0.116004 0.223413)
(-0.162811 -0.985212 0.0533896)
(0 -0 -1)
(0.935323 -0.283574 0.21156)
(0 0 -1)
(0.761625 -0.613098 0.209853)
(0 0 -1)
(0.964432 -0.21747 0.150257)
(0.0185812 -0.999778 -0.00989873)
(0.864028 -0.457661 0.209767)
(0 0 -1)
(0.100626 -0.97592 0.193533)
(0 0 -1)
(0.969919 -0.0956363 0.223856)
(0.475384 -0.854847 0.207957)
(0 0 -1)
(0.631277 -0.746662 0.209726)
(0 0 -1)
(0.296582 -0.933598 0.201082)
(0 0 -1)
)

// edgeNormals

75
(
2(60 6)
2(7 61)
2(20 62)
2(22 63)
2(57 64)
2(65 66)
2(49 67)
2(68 69)
2(7 10)
2(70 71)
2(72 73)
2(74 75)
2(54 76)
2(77 78)
2(79 80)
2(81 82)
2(19 64)
2(83 84)
2(85 86)
2(85 87)
2(88 89)
2(90 91)
2(92 93)
2(94 95)
2(34 46)
2(96 97)
2(98 87)
2(99 100)
2(101 102)
2(103 104)
2(21 62)
2(24 63)
1(49)
1(50)
1(51)
1(6)
1(52)
1(53)
1(54)
1(55)
1(56)
1(57)
1(58)
1(58)
1(59)
1(59)
3(0 1 2)
3(3 4 5)
4(6 7 8 9)
3(10 11 12)
3(13 14 15)
3(16 17 18)
3(19 20 21)
3(22 23 24)
3(25 26 27)
3(28 29 30)
3(31 32 33)
3(34 35 36)
3(37 38 39)
3(40 41 42)
3(43 1 2)
4(44 35 45 36)
3(44 45 46)
4(35 47 36 48)
4(47 32 48 33)
4(32 8 33 9)
4(8 11 9 12)
4(11 29 12 30)
4(29 4 30 5)
4(4 41 5 42)
4(41 14 42 15)
4(14 26 15 27)
4(26 38 27 39)
4(38 17 39 18)
4(17 1 18 2)
)

// featurePointNormals

19
(
3(60 6 50)
4(49 67 44 46)
3(3 4 13)
3(0 1 16)
3(3 4 10)
6(60 6 7 61 8 47)
5(7 10 6 8 11)
3(13 14 16)
5(70 71 54 76 52)
7(22 63 54 76 24 57 23)
6(20 62 57 64 19 21)
4(65 66 85 86)
3(25 26 37)
3(25 26 40)
3(28 29 40)
4(28 29 31 8)
3(37 38 43)
3(31 32 34)
3(34 46 35)
)

// featurePointEdges

19
(
3(0 33 35)
3(6 62 32)
4(47 50 69 70)
3(46 51 74)
4(47 49 67 68)
5(0 48 1 64 65)
5(48 8 49 66 35)
5(50 51 71 72 73)
4(9 12 36 38)
5(12 53 3 31 41)
6(52 16 2 30 4 41)
3(18 19 5)
3(54 58 72)
4(54 59 70 71)
4(55 59 68 69)
5(55 56 65 66 67)
4(58 60 73 74)
4(56 57 63 64)
4(57 24 61 62)
)

// regionEdges

43
(
46
47
48
49
50
51
52
53
54
55
56
57
58
59
60
61
62
63
64
65
66
67
68
69
70
71
72
73
74
32
33
34
35
36
37
38
39
40
41
42
43
44
45
)



// ************************************************************************* //
