/*--------------------------------*- C++ -*----------------------------------*\
| =========                 |                                                 |
| \\      /  F ield         | OpenFOAM: The Open Source CFD Toolbox           |
|  \\    /   O peration     | Version:  2.2.x                                 |
|   \\  /    A nd           | Web:      www.OpenFOAM.org                      |
|    \\/     M anipulation  |                                                 |
\*---------------------------------------------------------------------------*/
FoamFile
{
    version     2.0;
    format      ascii;
    class       extendedFeatureEdgeMesh;
    location    "constant/extendedFeatureEdgeMesh";
    object      femur_right_back.extendedFeatureEdgeMesh;
}
// * * * * * * * * * * * * * * * * * * * * * * * * * * * * * * * * * * * * * //

// points

60
(
(1.62608 3.55032 0.796602)
(1.63853 3.55747 0.536602)
(1.6583 3.58016 0.965315)
(1.65881 3.54924 0.97293)
(1.65764 3.56785 0.969541)
(1.65831 3.58015 0.965293)
(1.78608 3.55032 0.796602)
(1.697 3.5993 0.536602)
(1.73509 3.56035 0.536602)
(1.73608 3.55032 0.536602)
(1.73601 3.55098 0.536602)
(1.7354 3.55722 0.536602)
(1.73536 3.55762 0.536602)
(1.70605 3.59644 0.536602)
(1.63154 3.58484 0.796602)
(1.69942 3.62476 0.666244)
(1.70608 3.64532 0.796602)
(1.62744 3.56784 0.796602)
(1.6483 3.58573 0.922281)
(1.65772 3.56657 0.969774)
(1.73539 3.55733 0.536602)
(1.73535 3.5577 0.536602)
(1.70179 3.59779 0.536602)
(1.70283 3.63507 0.73146)
(1.93178 3.55436 0.0916016)
(1.93161 3.55431 0.0916016)
(1.93165 3.54566 0.0916016)
(1.93182 3.54692 0.0916016)
(1.65823 3.57869 0.965797)
(1.65475 3.58782 0.536602)
(1.66177 3.59307 0.536602)
(1.63526 3.56111 0.666402)
(1.64874 3.5814 0.536602)
(1.64391 3.57396 0.536602)
(1.63927 3.55944 0.601465)
(1.67811 3.59947 0.536602)
(1.68708 3.60032 0.536602)
(1.66961 3.597 0.536602)
(1.66962 3.61727 0.939658)
(1.66225 3.59998 0.954517)
(1.63339 3.55032 0.886513)
(1.64585 3.5498 0.929745)
(1.6798 3.63056 0.922008)
(1.71017 3.64362 0.876481)
(1.69216 3.63939 0.902534)
(1.78196 3.56977 0.797065)
(1.76586 3.55029 0.665729)
(1.76699 3.6048 0.808337)
(1.75686 3.61875 0.818591)
(1.77552 3.5882 0.801003)
(1.73387 3.63755 0.845332)
(1.73507 3.56045 0.536602)
(1.73227 3.56967 0.536602)
(1.73225 3.56972 0.536602)
(1.72786 3.57804 0.536602)
(1.72775 3.57821 0.536602)
(1.74561 3.62976 0.831195)
(1.70622 3.59637 0.536602)
(1.71455 3.59174 0.536602)
(1.72179 3.58562 0.536602)
)

// edges

71
(
(4 28)
(28 5)
(3 6)
(9 1)
(8 10)
(8 11)
(8 12)
(29 30)
(0 31)
(32 29)
(1 33)
(34 1)
(33 32)
(35 36)
(30 37)
(37 35)
(31 34)
(38 39)
(40 0)
(39 2)
(3 41)
(41 40)
(42 38)
(43 44)
(44 42)
(6 45)
(46 6)
(47 48)
(36 7)
(49 47)
(50 43)
(51 8)
(52 51)
(53 52)
(54 53)
(55 54)
(9 46)
(45 49)
(56 50)
(48 56)
(13 57)
(58 59)
(59 55)
(57 58)
(14 0)
(15 16)
(0 17)
(2 18)
(17 14)
(19 3)
(4 19)
(2 4)
(18 5)
(10 9)
(11 10)
(20 11)
(12 20)
(8 21)
(21 12)
(22 13)
(7 22)
(23 15)
(16 23)
(4 3)
(5 4)
(7 13)
(24 25)
(25 26)
(26 27)
(27 24)
(8 9)
)

// concaveStart mixedStart nonFeatureStart
0 0 14
// internalStart flatStart openStart multipleStart
7 44 44 70
// normals

93
(
(-0.969952 -0.0956281 0.223716)
(0 0 -1)
(0 0 -1)
(0.986124 -0.156039 0.0566609)
(0.124162 -0.981097 0.148434)
(0.993703 -0.077595 -0.0808347)
(0.912919 -0.319929 -0.253426)
(0.96969 -0.233525 -0.0718816)
(0.957803 0.00805422 -0.287311)
(0.957809 0.00800852 -0.287294)
(0.796906 0.157534 0.583202)
(0.945226 -0.212662 -0.247634)
(0 0 1)
(0 0 -1)
(0 0 -1)
(0 0 1)
(-0.294755 -0.934192 0.201007)
(-0.29474 -0.934197 0.201007)
(-0.07298 -0.984497 0.159497)
(-0.0208743 -0.987468 0.156433)
(0.800498 0.155828 0.578723)
(0.800504 0.155788 0.578726)
(0 0 -1)
(0 -0 1)
(0 0 1)
(0.951537 -0.145955 -0.270692)
(0.796482 0.157725 0.583729)
(0.951539 -0.145928 -0.2707)
(0.0067008 -0.999977 -0.00128862)
(0 -0 -1)
(-0.0730073 -0.996843 0.0312001)
(0.596818 -0.79784 0.0852055)
(0 0 -1)
(-0.227729 -0.968946 -0.096347)
(0.728719 -0.682617 0.0547926)
(0 0 -1)
(0.950753 -0.309945 -0.00138954)
(0.838327 -0.544425 0.0284593)
(0 0 -1)
(0.0935193 -0.979973 0.175805)
(0 0 -1)
(0.445018 -0.887769 0.117578)
(0 0 -1)
(0.275547 -0.948297 0.157505)
(0 0 -1)
(0.955255 -0.288249 0.0663444)
(-0.0800554 -0.996577 0.0206436)
(0.823851 -0.528272 -0.205424)
(0.8005 0.155815 0.578724)
(-2.10276e-05 -1 -8.89628e-06)
(0.800506 0.155774 0.578727)
(-0.0218808 -0.99974 -0.00634938)
(0.960437 -0.0274308 -0.277144)
(-0.0207161 -0.999767 -0.00608213)
(0.674301 -0.72202 -0.154934)
(0.800507 0.155768 0.578726)
(0.173271 -0.984056 -0.0401414)
(0.800495 0.155818 0.57873)
(0.473648 -0.875441 -0.0962332)
(0.800489 0.155878 0.578723)
(-0.966578 -0.20838 0.149347)
(0.800499 0.155827 0.578723)
(-0.0066897 -0.999977 0.00128648)
(-0.783199 -0.618149 0.0670102)
(0.800498 0.155837 0.578721)
(-0.100628 -0.97592 0.193533)
(0 0 -1)
(-0.862918 -0.492796 0.11191)
(0.800506 0.155774 0.578727)
(-0.31301 -0.948253 -0.0532987)
(-0.959518 -0.195594 0.202654)
(-0.935224 -0.283922 0.211529)
(0 0 -1)
(-0.903797 -0.371655 0.212187)
(0 0 -1)
(-0.86494 -0.456008 0.209608)
(0 0 -1)
(-0.818701 -0.534316 0.210319)
(0 0 -1)
(-0.92773 -0.350991 0.126973)
(0.800503 0.1558 0.578724)
(-0.544849 -0.838479 0.00959574)
(0.800506 0.155779 0.578726)
(-0.67655 -0.735399 0.0383231)
(0.800508 0.15576 0.578728)
(-0.388979 -0.899672 0.198208)
(0 0 -1)
(-0.631277 -0.746662 0.209726)
(0 0 -1)
(-0.761625 -0.613098 0.209853)
(0 0 -1)
(-0.475379 -0.85485 0.207957)
(0 0 -1)
)

// edgeNormals

71
(
2(10 25)
2(26 27)
2(20 28)
2(29 30)
2(1 12)
2(12 13)
2(14 15)
2(31 32)
2(3 33)
2(34 35)
2(36 29)
2(36 30)
2(37 38)
2(39 40)
2(41 42)
2(43 44)
2(45 46)
2(47 48)
2(5 49)
2(6 50)
2(8 51)
2(52 53)
2(54 55)
2(56 57)
2(58 59)
2(60 61)
2(60 62)
2(63 64)
2(65 66)
2(67 68)
2(69 57)
2(70 2)
2(71 72)
2(73 74)
2(75 76)
2(77 78)
2(0 62)
2(79 80)
2(81 82)
2(83 84)
2(85 86)
2(87 88)
2(89 90)
2(91 92)
1(3)
1(4)
1(5)
1(6)
1(7)
1(8)
1(9)
1(10)
1(11)
1(1)
1(12)
1(13)
1(14)
1(15)
1(15)
1(16)
1(17)
1(18)
1(19)
1(20)
1(21)
1(22)
1(23)
1(23)
1(24)
1(24)
3(0 1 2)
)

// featurePointNormals

14
(
4(3 33 5 49)
3(29 30 36)
3(6 50 10)
4(20 28 8 51)
4(10 25 9 20)
4(26 27 11 21)
4(20 28 60 62)
3(65 66 17)
4(1 12 70 0)
4(29 30 0 62)
2(1 12)
2(12 13)
2(14 15)
3(85 86 16)
)

// featurePointEdges

14
(
4(8 18 44 46)
3(10 11 3)
3(19 47 51)
4(20 2 49 63)
5(0 50 51 63 64)
3(1 52 64)
3(25 26 2)
3(28 60 65)
6(31 70 4 5 6 57)
4(70 36 3 53)
3(4 53 54)
3(5 54 55)
3(6 56 58)
3(40 59 65)
)

// regionEdges

27
(
70
44
45
46
47
48
49
50
51
52
53
54
55
56
57
58
59
60
61
62
63
64
65
66
67
68
69
)



// ************************************************************************* //
