/*--------------------------------*- C++ -*----------------------------------*\
| =========                 |                                                 |
| \\      /  F ield         | OpenFOAM: The Open Source CFD Toolbox           |
|  \\    /   O peration     | Version:  2.2.x                                 |
|   \\  /    A nd           | Web:      www.OpenFOAM.org                      |
|    \\/     M anipulation  |                                                 |
\*---------------------------------------------------------------------------*/
FoamFile
{
    version     2.0;
    format      ascii;
    class       extendedFeatureEdgeMesh;
    location    "constant/extendedFeatureEdgeMesh";
    object      femur_left_front.extendedFeatureEdgeMesh;
}
// * * * * * * * * * * * * * * * * * * * * * * * * * * * * * * * * * * * * * //

// points

71
(
(1.97392 3.55032 0.796602)
(1.96137 3.5533 0.536602)
(1.96147 3.55747 0.536602)
(1.84727 3.46017 0.867002)
(1.88436 3.45986 0.91838)
(1.86825 3.45658 0.896982)
(1.87397 3.45774 0.904587)
(1.83411 3.55029 0.665775)
(1.86539 3.53812 0.536602)
(1.81392 3.55032 0.796602)
(1.86331 3.45637 0.890208)
(1.86 3.45716 0.885416)
(1.93833 3.53398 0.973087)
(1.93537 3.52407 0.971659)
(1.93679 3.52883 0.972345)
(1.89429 3.46511 0.93071)
(1.88886 3.46224 0.92397)
(1.89081 3.46326 0.926385)
(1.94119 3.54924 0.97293)
(1.92335 3.49762 0.962155)
(1.93175 3.51484 0.969135)
(1.90319 3.4719 0.941193)
(1.90544 3.47437 0.943644)
(1.96078 3.55733 0.536602)
(1.86512 3.45594 0.89283)
(1.92229 3.47988 0.666455)
(1.92072 3.46081 0.796602)
(1.97198 3.52945 0.796602)
(1.96616 3.50945 0.796602)
(1.95243 3.48552 0.796602)
(1.93265 3.46718 0.796602)
(1.82368 3.54945 0.731455)
(1.92157 3.46882 0.731361)
(1.93398 3.51942 0.970989)
(1.94325 3.4755 0.796602)
(1.97047 3.52265 0.796602)
(1.96012 3.49698 0.796602)
(1.90393 3.47256 0.942042)
(1.88904 3.46203 0.924268)
(1.87455 3.45684 0.905638)
(1.86045 3.45625 0.886278)
(1.92798 3.50523 0.966506)
(1.93625 3.52631 0.972273)
(1.93178 3.55436 0.0916016)
(1.93161 3.55431 0.0916016)
(1.93165 3.54566 0.0916016)
(1.93182 3.54692 0.0916016)
(1.91924 3.49086 0.958289)
(1.93635 3.50642 0.536602)
(1.92821 3.50282 0.536602)
(1.96474 3.56111 0.666402)
(1.94365 3.51142 0.536602)
(1.95503 3.52477 0.536602)
(1.94993 3.5176 0.536602)
(1.96118 3.54504 0.536602)
(1.96109 3.54087 0.536602)
(1.96073 3.55944 0.601465)
(1.95961 3.53693 0.536602)
(1.91634 3.50042 0.536602)
(1.90479 3.501 0.536602)
(1.81951 3.49314 0.819794)
(1.83141 3.4728 0.841616)
(1.81346 3.51967 0.804142)
(1.81548 3.50565 0.811085)
(1.86951 3.52712 0.536602)
(1.88418 3.50989 0.536602)
(1.82835 3.52879 0.714116)
(1.82961 3.51835 0.721249)
(1.95415 3.5498 0.929745)
(1.92119 3.49319 0.960358)
(1.96661 3.55032 0.886513)
)

// edges

98
(
(4 15)
(22 47)
(8 23)
(18 9)
(48 49)
(0 50)
(51 48)
(52 53)
(54 55)
(1 54)
(56 2)
(57 52)
(55 57)
(50 56)
(53 51)
(58 59)
(60 61)
(8 7)
(9 62)
(62 63)
(63 60)
(49 58)
(61 3)
(64 8)
(65 64)
(59 65)
(66 67)
(13 12)
(16 15)
(18 68)
(69 19)
(70 0)
(68 70)
(47 69)
(8 9)
(25 26)
(27 0)
(28 27)
(29 28)
(30 29)
(31 9)
(32 25)
(26 32)
(7 31)
(33 13)
(14 12)
(17 15)
(12 18)
(20 33)
(34 30)
(0 35)
(15 21)
(35 36)
(36 34)
(21 37)
(37 22)
(4 38)
(38 16)
(6 39)
(39 4)
(3 40)
(40 11)
(19 41)
(41 20)
(13 42)
(42 14)
(21 22)
(20 13)
(14 18)
(7 9)
(43 44)
(44 45)
(45 46)
(46 43)
(2 1)
(24 5)
(6 4)
(5 6)
(10 24)
(11 10)
(3 11)
(13 14)
(4 16)
(16 17)
(19 20)
(1 23)
(23 2)
(5 10)
(5 11)
(6 11)
(6 3)
(4 3)
(16 3)
(16 9)
(9 3)
(17 9)
(17 21)
(21 9)
)

// concaveStart mixedStart nonFeatureStart
0 0 24
// internalStart flatStart openStart multipleStart
4 35 35 74
// normals

125
(
(-0.999666 0.022834 -0.0121013)
(0 0 -1)
(0 0 1)
(0.0391793 0.982868 -0.180099)
(-0.800527 0.156323 0.578549)
(-0.800527 0.156323 0.578549)
(0.174456 0.945148 -0.276153)
(-0.800405 0.156971 0.578542)
(-0.800446 0.156231 0.578686)
(-0.800446 0.156231 0.578686)
(-0.800446 0.156231 0.578686)
(-0.800548 0.155897 0.578635)
(-0.800548 0.155897 0.578635)
(-0.800548 0.155897 0.578635)
(0.150451 0.986932 0.0576996)
(0.150382 0.986943 0.0576878)
(-0.800653 0.155205 0.578676)
(-0.800653 0.155205 0.578676)
(-0.800653 0.155205 0.578676)
(0.150412 0.986938 0.0576945)
(-0.800666 0.154848 0.578753)
(-0.800745 0.154469 0.578746)
(-0.800666 0.154848 0.578753)
(-0.800666 0.154848 0.578753)
(-0.406158 0.248084 -0.879483)
(-0.800771 0.155927 0.578319)
(-0.800504 0.155789 0.578726)
(-0.74202 0.567903 0.356219)
(-0.800501 0.155842 0.578715)
(-0.8005 0.155821 0.578723)
(-0.8005 0.155821 0.578723)
(-0.8005 0.155821 0.578723)
(0.397712 0.683937 -0.6116)
(-0.80051 0.155782 0.57872)
(-0.80051 0.155782 0.57872)
(-0.80051 0.155782 0.57872)
(-0.828903 0.503247 -0.244258)
(-0.800475 0.155773 0.578769)
(-0.800501 0.155803 0.578726)
(0 0 -1)
(-0.197221 0.979833 -0.0321003)
(-0.800503 0.155797 0.578725)
(-0.800503 0.155797 0.578725)
(-0.800503 0.155797 0.578725)
(-0.801526 0.154569 0.577637)
(-0.800505 0.155792 0.578723)
(-0.800505 0.155792 0.578723)
(-0.800505 0.155792 0.578723)
(-0.800508 0.155784 0.578721)
(-0.467396 0.875497 0.122666)
(-0.993757 0.0925503 0.0623042)
(-0.957744 0.278918 0.0702237)
(-0.865061 0.496138 0.0742695)
(-0.676877 0.729884 0.0954354)
(0.986637 0.0705212 0.146882)
(-0.257076 0.953117 0.159626)
(-0.404492 0.908349 0.106243)
(0.983347 0.0911558 0.157225)
(-0.910203 0.311328 -0.273139)
(-0.943856 0.173731 -0.280986)
(-0.828907 0.503239 -0.244261)
(-0.609526 0.775964 -0.162349)
(-0.989083 0.123455 -0.0804568)
(-0.509293 0.852207 -0.11985)
(-0.92214 0.371652 -0.107389)
(-0.778742 0.611905 -0.138318)
(-0.558276 0.816231 -0.148641)
(-0.666944 0.721872 -0.184624)
(-0.800501 0.155802 0.578726)
(-0.800504 0.155789 0.578726)
(0.725927 0.678617 0.111846)
(0 -0 1)
(0 0 1)
(-0.372972 0.92323 -0.0924011)
(-0.666942 0.721875 -0.184619)
(-0.80046 0.155689 0.578814)
(0 0 -1)
(-0.197246 0.979828 -0.0321002)
(0.0575402 0.997715 -0.0354191)
(-0.400983 0.90508 0.141575)
(0 0 -1)
(-0.997397 0.0108675 0.0712844)
(-0.348552 0.931746 0.101791)
(-0.561703 0.820682 0.104739)
(0 0 -1)
(-0.812835 0.578131 0.0711658)
(0 0 -1)
(-0.999666 0.0228366 -0.0121027)
(0 0 -1)
(-0.999666 0.0228279 -0.0121007)
(-0.935912 0.352227 0.0023798)
(0 0 -1)
(-0.935911 0.352228 0.00237976)
(-0.998059 0.0108642 0.0613235)
(-0.210336 0.977554 -0.0121128)
(-0.698333 0.709632 0.0935603)
(0 0 -1)
(0.0491764 0.983051 0.176614)
(0 0 -1)
(0.745826 0.638847 0.18873)
(-0.797264 0.158348 0.582491)
(0.9619 0.165946 0.217281)
(0.986241 0.0253157 0.163367)
(-0.834584 0.1434 0.531888)
(0.957158 0.226897 0.179908)
(0.886457 0.420439 0.193457)
(-0.779845 0.168334 0.602914)
(-0.195292 0.967285 0.161928)
(0 0 -1)
(0.45957 0.87565 0.148435)
(0.914409 0.342839 0.215214)
(0.742498 0.632098 0.221695)
(0 0 -1)
(0.387448 0.897975 0.208627)
(0 0 -1)
(0.665113 0.474186 0.576864)
(0.963026 0.22098 0.154107)
(-0.910197 0.311348 -0.273139)
(-0.0807735 0.996668 -0.0113627)
(-0.828898 0.503262 -0.244246)
(-0.800574 0.155929 0.578591)
(-0.0936613 0.995575 -0.00760842)
(-0.948825 0.161265 -0.271523)
(-0.0809628 0.996653 -0.0113195)
(-0.666927 0.721891 -0.184612)
)

// edgeNormals

98
(
2(73 27)
2(74 75)
2(76 77)
2(69 78)
2(79 80)
2(81 82)
2(83 84)
2(85 86)
2(87 88)
2(89 39)
2(0 40)
2(90 91)
2(92 88)
2(93 94)
2(95 96)
2(97 98)
2(99 100)
2(101 70)
2(102 103)
2(104 103)
2(105 106)
2(107 108)
2(109 44)
2(110 76)
2(111 112)
2(113 114)
2(115 116)
2(117 24)
2(27 32)
2(59 118)
2(119 120)
2(62 121)
2(122 123)
2(124 120)
2(78 70)
1(49)
1(50)
1(51)
1(52)
1(53)
1(54)
1(55)
1(56)
1(57)
1(58)
1(24)
1(32)
1(59)
1(60)
1(61)
1(62)
1(63)
1(64)
1(65)
1(66)
1(67)
1(28)
1(28)
1(7)
1(7)
1(21)
1(21)
1(37)
1(37)
1(25)
1(25)
1(48)
1(68)
1(69)
1(70)
1(71)
1(71)
1(72)
1(72)
3(0 1 2)
3(3 4 5)
5(6 7 8 9 10)
4(6 11 12 13)
3(14 4 5)
4(15 16 17 18)
5(19 20 21 22 23)
3(24 25 26)
5(27 28 29 30 31)
4(32 33 34 35)
3(36 37 38)
3(1 39 2)
3(1 2 40)
5(4 16 5 17 18)
6(16 11 17 12 18 13)
6(11 20 12 22 13 23)
6(20 8 22 9 23 10)
6(8 29 9 30 10 31)
6(29 41 30 42 31 43)
6(41 33 42 34 43 35)
4(41 44 42 43)
6(33 45 34 46 35 47)
3(45 46 47)
4(45 46 48 47)
)

// featurePointNormals

24
(
5(81 82 62 121 50)
3(89 39 2)
4(0 40 1 2)
4(109 44 19 8)
4(73 27 28 6)
3(3 4 6)
3(7 6 20)
3(101 70 57)
6(76 77 101 70 110 78)
7(69 78 102 103 70 54 44)
2(14 4)
2(21 15)
3(117 24 59)
3(117 24 25)
2(24 25)
4(73 27 32 63)
3(27 32 28)
2(32 33)
4(69 78 59 118)
2(119 120)
2(60 37)
3(63 66 48)
2(74 75)
3(76 77 2)
)

// featurePointEdges

24
(
4(5 31 36 50)
3(9 74 85)
3(74 10 86)
7(80 22 90 91 92 94 60)
6(76 0 82 91 56 59)
4(75 77 87 88)
5(76 77 89 90 58)
3(17 43 69)
4(17 23 2 34)
9(18 93 94 95 97 3 34 40 69)
3(78 79 87)
5(79 80 88 89 61)
3(27 45 47)
5(27 81 44 64 67)
4(81 45 65 68)
4(0 28 46 51)
6(28 82 83 92 93 57)
4(83 95 96 46)
4(29 3 47 68)
3(30 84 62)
4(84 48 63 67)
5(96 97 51 54 66)
3(1 55 66)
3(85 86 2)
)

// regionEdges

63
(
74
75
76
77
78
79
80
81
82
83
84
85
86
87
88
89
90
91
92
93
94
95
96
97
35
36
37
38
39
40
41
42
43
44
45
46
47
48
49
50
51
52
53
54
55
56
57
58
59
60
61
62
63
64
65
66
67
68
69
70
71
72
73
)



// ************************************************************************* //
