/*--------------------------------*- C++ -*----------------------------------*\
| =========                 |                                                 |
| \\      /  F ield         | OpenFOAM: The Open Source CFD Toolbox           |
|  \\    /   O peration     | Version:  2.2.x                                 |
|   \\  /    A nd           | Web:      www.OpenFOAM.org                      |
|    \\/     M anipulation  |                                                 |
\*---------------------------------------------------------------------------*/
FoamFile
{
    version     2.0;
    format      ascii;
    class       extendedFeatureEdgeMesh;
    location    "constant/extendedFeatureEdgeMesh";
    object      foot_left.extendedFeatureEdgeMesh;
}
// * * * * * * * * * * * * * * * * * * * * * * * * * * * * * * * * * * * * * //

// points

345
(
(1.95135 3.42769 0.00577187)
(1.95021 3.43113 0.00322735)
(1.889 3.39206 0.0098753)
(1.90872 3.51433 0.0916016)
(1.88254 3.55481 0.00531101)
(1.8838 3.56746 0.00271094)
(1.88296 3.44252 0.00673413)
(1.88239 3.5612 0.00396323)
(1.95021 3.43272 0.00326252)
(1.88962 3.38979 0.0204872)
(1.91232 3.58572 0.0916016)
(1.94975 3.43629 0.00274599)
(1.8925 3.49496 0.0103397)
(1.92249 3.57413 0.00233066)
(1.92683 3.56474 0.00389755)
(1.88675 3.39428 0.0139292)
(1.88619 3.39565 0.0137169)
(1.89014 3.3865 0.0176017)
(1.93178 3.55436 0.0916016)
(1.93165 3.54566 0.0916016)
(1.88894 3.38852 0.0169133)
(1.89316 3.51866 0.0106337)
(1.88596 3.54275 0.00780034)
(1.89284 3.52098 0.0105646)
(1.88302 3.4434 0.00681901)
(1.88485 3.54618 0.00731158)
(1.88223 3.55921 0.00480652)
(1.89278 3.52113 0.010628)
(1.89264 3.52143 0.0108146)
(1.87916 3.43552 0.0286241)
(1.88069 3.41968 0.0182287)
(1.88485 3.54602 0.00724363)
(1.90671 3.59179 0.00590372)
(1.90621 3.58731 0.0015831)
(1.90618 3.58707 0.00142634)
(1.90715 3.59618 0.0133927)
(1.9059 3.58463 0.000163317)
(1.90641 3.58907 0.00295436)
(1.88791 3.39043 0.0163885)
(1.92862 3.5538 0.00493586)
(1.92899 3.55452 0.00572383)
(1.9312 3.55907 0.0182344)
(1.88948 3.38759 0.0172129)
(1.92951 3.55567 0.00759924)
(1.92726 3.5661 0.00574124)
(1.92779 3.56803 0.0097152)
(1.927 3.55989 0.00306284)
(1.94712 3.47248 0.00527668)
(1.9367 3.51281 0.0071063)
(1.89014 3.38675 0.0174974)
(1.91694 3.51696 0.0916016)
(1.9367 3.51279 0.00708485)
(1.94914 3.45144 0.003775)
(1.92853 3.55011 0.0048914)
(1.95036 3.43078 0.00348163)
(1.94988 3.43333 0.00286698)
(1.95012 3.43148 0.00313795)
(1.95007 3.43194 0.00308085)
(1.95011 3.43163 0.00314045)
(1.88402 3.55371 0.0916016)
(1.88419 3.54478 0.0916016)
(1.88498 3.56019 0.0916016)
(1.88435 3.55592 0.0916016)
(1.94971 3.44106 0.00291336)
(1.92707 3.55953 0.00313318)
(1.89783 3.583 0.0916016)
(1.89218 3.57752 0.0916016)
(1.8853 3.56239 0.0916016)
(1.88799 3.57046 0.0916016)
(1.88453 3.54338 0.0916016)
(1.88525 3.54045 0.0916016)
(1.91966 3.39121 0.0147735)
(1.92288 3.57574 0.00410593)
(1.92225 3.57318 0.00156093)
(1.91496 3.57964 0.000107765)
(1.93304 3.55382 0.0212194)
(1.95159 3.44399 0.0121785)
(1.93632 3.51274 0.00697517)
(1.92711 3.57633 0.0173993)
(1.9284 3.55342 0.00462008)
(1.95216 3.42279 0.00603127)
(1.95213 3.42273 0.00606191)
(1.95099 3.42681 0.00432992)
(1.94056 3.51397 0.0232569)
(1.94904 3.46844 0.0175424)
(1.94216 3.50814 0.023263)
(1.95016 3.43462 0.0032506)
(1.95084 3.42956 0.00462198)
(1.95213 3.42538 0.00689066)
(1.95203 3.43335 0.00927198)
(1.95212 3.42804 0.00770438)
(1.95096 3.42746 0.00438487)
(1.95219 3.42286 0.00602317)
(1.95 3.43522 0.00296354)
(1.91176 3.58949 0.00611603)
(1.94972 3.46535 0.0170985)
(1.95213 3.42677 0.00731897)
(1.94056 3.51399 0.0232737)
(1.92249 3.57416 0.0023489)
(1.95215 3.42276 0.00604355)
(1.91175 3.58944 0.00604737)
(1.95018 3.43131 0.00319231)
(1.94935 3.44149 0.00268233)
(1.94933 3.44173 0.00271833)
(1.95034 3.43007 0.00341892)
(1.95024 3.43119 0.00330937)
(1.95202 3.43366 0.00936091)
(1.92726 3.56609 0.00571227)
(1.952 3.43411 0.00948977)
(1.95018 3.43141 0.00322378)
(1.94976 3.43449 0.00274849)
(1.95023 3.43076 0.00327671)
(1.95018 3.43129 0.00322306)
(1.94676 3.47269 0.00525057)
(1.9503 3.43098 0.00339437)
(1.9503 3.43094 0.00339234)
(1.94638 3.4126 0.0085721)
(1.952 3.42247 0.00613415)
(1.92091 3.52003 0.0916016)
(1.9316 3.55634 0.0916016)
(1.92898 3.5676 0.0916016)
(1.93131 3.55761 0.0916016)
(1.92685 3.52819 0.0916016)
(1.92905 3.53324 0.0916016)
(1.93166 3.54464 0.0916016)
(1.9316 3.55559 0.0916016)
(1.9243 3.57647 0.0916016)
(1.92847 3.56893 0.0916016)
(1.92051 3.58097 0.0916016)
(1.91658 3.5839 0.0916016)
(1.91449 3.58495 0.0916016)
(1.92036 3.58109 0.0916016)
(1.91013 3.58617 0.0916016)
(1.93132 3.54318 0.0916016)
(1.9242 3.52384 0.0916016)
(1.92147 3.52068 0.0916016)
(1.92245 3.52181 0.0916016)
(1.9494 3.45181 0.00390911)
(1.91996 3.5748 0.000566482)
(1.93238 3.52556 0.00730848)
(1.94926 3.44481 0.00297272)
(1.95112 3.42764 0.00467014)
(1.9439 3.48584 0.00561237)
(1.88437 3.54493 0.0916016)
(1.92449 3.56754 0.00165296)
(1.88859 3.58555 0.0555151)
(1.89314 3.58452 0.0726236)
(1.9064 3.58896 0.00285196)
(1.92882 3.55417 0.00530839)
(1.93149 3.5593 0.0193125)
(1.92653 3.56389 0.00310016)
(1.92345 3.57806 0.00790131)
(1.92345 3.57804 0.00784111)
(1.91628 3.58637 0.00653303)
(1.91627 3.58633 0.00646591)
(1.91574 3.5837 0.00309038)
(1.91538 3.58188 0.00145638)
(1.93078 3.55855 0.0160102)
(1.92927 3.56634 0.0916016)
(1.91453 3.58495 0.0916016)
(1.93182 3.54692 0.0916016)
(1.93161 3.55431 0.0916016)
(1.89975 3.59512 0.0125089)
(1.893 3.59211 0.0131383)
(1.87965 3.50699 0.0386056)
(1.87994 3.45149 0.0279509)
(1.90671 3.59175 0.00580406)
(1.88748 3.58747 0.0152053)
(1.88179 3.57545 0.0220803)
(1.88056 3.56209 0.0293401)
(1.87994 3.53494 0.0375197)
(1.88606 3.39442 0.0156323)
(1.88321 3.40282 0.0152572)
(1.89786 3.58244 0.000231028)
(1.88381 3.58176 0.0183705)
(1.92558 3.5648 0.00214374)
(1.88836 3.58842 0.0147272)
(1.89145 3.59108 0.0135318)
(1.94702 3.47132 0.00523424)
(1.93123 3.53021 0.00719798)
(1.90166 3.58376 0.000140071)
(1.89009 3.38679 0.0174863)
(1.88945 3.38764 0.0171952)
(1.93708 3.51036 0.00685322)
(1.88415 3.54707 0.0916016)
(1.88407 3.5515 0.0916016)
(1.88972 3.38718 0.017354)
(1.92348 3.56953 0.00132883)
(1.90904 3.58329 5.38826e-05)
(1.88839 3.38952 0.0166225)
(1.92062 3.57398 0.000672817)
(1.91686 3.57805 0.000225782)
(1.91189 3.58177 2.49147e-05)
(1.88261 3.5786 0.0202224)
(1.88585 3.58538 0.0163233)
(1.87972 3.51735 0.038895)
(1.8802 3.54848 0.0344906)
(1.90294 3.59584 0.0127039)
(1.89884 3.59484 0.0125065)
(1.89498 3.59323 0.012787)
(1.88061 3.56366 0.0285836)
(1.87963 3.48566 0.0360564)
(1.88244 3.40609 0.0155053)
(1.88052 3.42293 0.0191531)
(1.88482 3.39761 0.0153114)
(1.90535 3.38713 0.0165268)
(1.92817 3.55302 0.00436294)
(1.92618 3.56296 0.00248241)
(1.92288 3.57571 0.00406694)
(1.92197 3.57211 0.00092411)
(1.95028 3.43041 0.00334466)
(1.95056 3.42887 0.0037092)
(1.95045 3.42943 0.0035671)
(1.94744 3.47222 0.00534666)
(1.94912 3.45211 0.0038631)
(1.94023 3.51405 0.0228853)
(1.94712 3.47246 0.00525284)
(1.90949 3.38794 0.0160985)
(1.92799 3.53079 0.0916016)
(1.9278 3.57455 0.0177375)
(1.93482 3.54513 0.0223012)
(1.92983 3.3966 0.0129965)
(1.93883 3.40378 0.0109136)
(1.95213 3.42331 0.00624347)
(1.94616 3.48855 0.021126)
(1.94385 3.49307 0.0263432)
(1.92006 3.58779 0.0151182)
(1.92458 3.58155 0.0163759)
(1.91415 3.59278 0.0140992)
(1.92391 3.57718 0.0916016)
(1.95083 3.42001 0.00672018)
(1.94286 3.40806 0.00975335)
(1.95163 3.42164 0.00632489)
(1.95211 3.42288 0.00612867)
(1.95209 3.42277 0.00611854)
(1.93233 3.39832 0.0124757)
(1.9252 3.52549 0.0916016)
(1.9264 3.52744 0.0916016)
(1.91362 3.58064 5.6386e-05)
(1.88523 3.56127 0.0916016)
(1.88485 3.54033 0.0916016)
(1.88427 3.54595 0.0916016)
(1.92375 3.57712 0.0916016)
(1.92378 3.57708 0.0916016)
(1.92047 3.58095 0.0916016)
(1.93085 3.53965 0.0916016)
(1.92489 3.57578 0.0916016)
(1.88438 3.54483 0.0916016)
(1.9315 3.55628 0.0916016)
(1.93151 3.5446 0.0916016)
(1.93069 3.56177 0.0916016)
(1.95024 3.43111 0.0033077)
(1.89235 3.49352 0.0102315)
(1.88333 3.4771 0.0481617)
(1.87837 3.51331 0.0535282)
(1.88135 3.41412 0.0161523)
(1.88036 3.44217 0.0242728)
(1.88279 3.41698 0.0076381)
(1.87945 3.49465 0.0448234)
(1.87876 3.50446 0.049492)
(1.88024 3.46479 0.038642)
(1.92778 3.56804 0.00976336)
(1.88895 3.39326 0.0230634)
(1.90233 3.42164 0.0299908)
(1.89948 3.43966 0.0354693)
(1.90073 3.44832 0.0402436)
(1.88967 3.39304 0.0230979)
(1.88738 3.53171 0.0916016)
(1.9022 3.45672 0.0454444)
(1.91082 3.39485 0.0213764)
(1.90194 3.39296 0.0223412)
(1.91263 3.42421 0.0288924)
(1.91566 3.4057 0.024628)
(1.91169 3.4429 0.0338629)
(1.92971 3.56793 0.0183862)
(1.95091 3.42817 0.00446606)
(1.95213 3.42405 0.00647616)
(1.94979 3.44075 0.0029279)
(1.9522 3.42294 0.00603366)
(1.9522 3.42302 0.00605917)
(1.95125 3.44567 0.0124495)
(1.95104 3.44593 0.0123079)
(1.95215 3.42336 0.00623643)
(1.94943 3.4413 0.00270283)
(1.93016 3.55729 0.0117345)
(1.95122 3.4305 0.00649655)
(1.9113 3.5867 0.00286949)
(1.93816 3.47574 0.0317841)
(1.93645 3.51871 0.0429579)
(1.93778 3.47041 0.030086)
(1.94183 3.46074 0.0250871)
(1.93867 3.5082 0.0364913)
(1.88487 3.54649 0.00749099)
(1.95137 3.4351 0.0088712)
(1.90428 3.40191 0.00819087)
(1.91573 3.58365 0.0030452)
(1.94905 3.46846 0.0175724)
(1.95143 3.43519 0.00899839)
(1.95107 3.44597 0.0123725)
(1.95169 3.43462 0.00929177)
(1.95107 3.42835 0.00476491)
(1.93705 3.51288 0.00734246)
(1.93762 3.51305 0.00808048)
(1.94024 3.51409 0.0229142)
(1.93166 3.55943 0.0198399)
(1.93755 3.46773 0.0291698)
(1.93751 3.4674 0.0290658)
(1.9489 3.45868 0.00460529)
(1.90997 3.39469 0.0215412)
(1.88297 3.4168 0.00705183)
(1.87997 3.49832 0.0544295)
(1.88525 3.57149 0.00235832)
(1.88681 3.57328 0.00162542)
(1.88297 3.56557 0.00350034)
(1.88073 3.41953 0.0251067)
(1.87877 3.45002 0.0332502)
(1.94681 3.4457 0.0193374)
(1.93077 3.55853 0.016036)
(1.89144 3.57839 0.000772715)
(1.8926 3.52262 0.0916016)
(1.95008 3.43531 0.0031153)
(1.91297 3.51512 0.0916016)
(1.89599 3.5191 0.0916016)
(1.90423 3.51475 0.0916016)
(1.95031 3.43143 0.00339866)
(1.90435 3.58594 0.0916016)
(1.90099 3.58482 0.0916016)
(1.91545 3.50816 0.075296)
(1.89988 3.5164 0.0916016)
(1.90792 3.58632 0.0916016)
(1.89636 3.58157 0.0916016)
(1.88595 3.56434 0.0916016)
(1.88729 3.56836 0.0916016)
(1.889 3.57216 0.0916016)
(1.91247 3.59379 0.0138933)
(1.91816 3.58804 0.0535026)
(1.91967 3.5816 0.0916016)
(1.91492 3.59154 0.0530539)
(1.91173 3.58584 0.0916016)
(1.9109 3.58601 0.0916016)
(1.95188 3.42896 0.00762105)
(1.93737 3.51297 0.0076822)
(1.94878 3.46869 0.0174087)
(1.95177 3.42671 0.00652516)
(1.92977 3.56801 0.0186564)
)

// edges

484
(
(15 17)
(20 17)
(12 252)
(21 12)
(23 21)
(26 25)
(253 254)
(21 27)
(27 28)
(255 256)
(257 24)
(29 258)
(259 260)
(20 16)
(22 31)
(44 45)
(45 261)
(49 262)
(47 51)
(263 264)
(264 265)
(266 49)
(65 66)
(68 67)
(70 267)
(265 268)
(269 270)
(271 272)
(273 271)
(274 75)
(78 274)
(82 80)
(84 85)
(87 275)
(276 88)
(93 277)
(278 279)
(280 281)
(84 95)
(0 88)
(84 280)
(275 91)
(279 282)
(76 95)
(283 101)
(282 276)
(0 87)
(102 103)
(52 102)
(105 93)
(93 104)
(107 44)
(102 110)
(284 157)
(285 0)
(1 111)
(112 1)
(34 286)
(287 288)
(287 289)
(290 291)
(292 28)
(57 110)
(27 25)
(1 109)
(115 54)
(119 120)
(293 285)
(17 294)
(128 129)
(123 124)
(13 295)
(79 64)
(139 79)
(95 296)
(63 54)
(297 298)
(299 297)
(58 137)
(81 141)
(295 100)
(141 300)
(301 39)
(107 43)
(43 302)
(45 107)
(303 304)
(305 306)
(289 305)
(137 307)
(92 141)
(47 307)
(144 73)
(48 139)
(57 55)
(46 64)
(64 53)
(330 66)
(65 330)
(331 67)
(332 331)
(68 332)
(115 114)
(121 120)
(336 129)
(131 336)
(338 132)
(339 132)
(338 339)
(135 134)
(135 136)
(125 19)
(263 268)
(16 15)
(17 2)
(308 270)
(15 20)
(2 309)
(253 310)
(252 21)
(22 23)
(21 22)
(12 24)
(25 4)
(4 26)
(311 5)
(5 312)
(27 12)
(313 5)
(314 29)
(29 315)
(260 254)
(24 6)
(256 30)
(30 255)
(6 257)
(309 6)
(31 4)
(259 315)
(38 16)
(316 291)
(31 23)
(7 26)
(4 7)
(317 41)
(313 7)
(7 5)
(312 318)
(44 261)
(267 319)
(320 8)
(9 49)
(262 9)
(321 50)
(319 322)
(323 3)
(8 324)
(324 54)
(59 60)
(2 294)
(61 62)
(325 326)
(50 327)
(327 3)
(328 323)
(9 266)
(329 325)
(326 65)
(66 333)
(333 68)
(3 321)
(308 269)
(322 328)
(273 272)
(83 84)
(88 87)
(90 89)
(91 92)
(92 278)
(74 34)
(95 85)
(80 92)
(99 80)
(101 102)
(44 14)
(109 283)
(317 284)
(86 93)
(277 105)
(286 32)
(94 334)
(78 75)
(28 25)
(98 73)
(111 109)
(31 27)
(122 123)
(124 119)
(130 335)
(132 329)
(120 127)
(10 337)
(281 293)
(130 10)
(81 56)
(10 132)
(118 134)
(134 122)
(156 36)
(137 63)
(138 13)
(63 320)
(340 299)
(341 301)
(298 95)
(342 303)
(97 342)
(300 343)
(8 63)
(100 334)
(343 340)
(75 344)
(304 75)
(344 78)
(78 45)
(112 56)
(137 140)
(99 141)
(302 341)
(47 137)
(63 11)
(296 85)
(11 58)
(11 137)
(47 142)
(142 48)
(160 18)
(19 160)
(18 161)
(161 19)
(162 163)
(164 165)
(166 32)
(35 162)
(163 167)
(168 169)
(37 166)
(169 170)
(165 30)
(171 38)
(172 171)
(38 20)
(30 172)
(173 36)
(20 42)
(42 17)
(174 168)
(170 164)
(167 174)
(46 175)
(176 177)
(51 48)
(52 178)
(179 53)
(180 173)
(49 181)
(42 182)
(183 179)
(184 60)
(59 185)
(178 183)
(186 42)
(175 187)
(188 36)
(20 189)
(190 191)
(182 20)
(192 188)
(181 186)
(55 52)
(193 194)
(195 196)
(36 180)
(194 176)
(191 192)
(187 190)
(197 35)
(198 197)
(199 198)
(200 193)
(201 195)
(65 145)
(196 200)
(177 199)
(67 61)
(202 203)
(189 204)
(204 202)
(203 201)
(62 59)
(60 69)
(69 70)
(205 49)
(71 205)
(48 77)
(77 206)
(206 207)
(72 208)
(207 209)
(80 81)
(81 82)
(36 74)
(88 96)
(96 90)
(85 75)
(97 83)
(91 99)
(100 94)
(103 52)
(89 106)
(108 76)
(104 210)
(101 58)
(110 103)
(54 86)
(106 108)
(111 112)
(109 101)
(211 212)
(213 47)
(47 113)
(113 77)
(114 86)
(212 104)
(52 214)
(210 111)
(214 113)
(32 94)
(208 98)
(13 72)
(209 74)
(98 13)
(97 215)
(77 51)
(112 109)
(113 216)
(82 211)
(50 118)
(217 71)
(119 121)
(122 218)
(124 125)
(125 119)
(219 220)
(71 221)
(221 222)
(17 217)
(96 223)
(224 108)
(108 225)
(226 227)
(220 224)
(216 213)
(228 226)
(126 229)
(229 128)
(222 116)
(35 228)
(225 106)
(128 131)
(230 231)
(232 230)
(133 124)
(117 232)
(233 234)
(234 117)
(223 233)
(106 96)
(227 219)
(231 235)
(235 71)
(118 135)
(136 134)
(134 236)
(237 122)
(215 83)
(36 238)
(76 89)
(64 139)
(140 110)
(90 88)
(114 54)
(81 99)
(58 112)
(142 140)
(109 105)
(239 67)
(185 62)
(240 70)
(241 184)
(69 143)
(143 241)
(135 50)
(242 243)
(244 242)
(236 136)
(243 126)
(218 237)
(131 244)
(18 125)
(123 245)
(245 133)
(127 246)
(246 126)
(240 69)
(247 143)
(143 60)
(60 247)
(121 248)
(249 133)
(121 250)
(250 158)
(248 125)
(19 249)
(61 239)
(58 109)
(115 251)
(238 138)
(144 138)
(105 114)
(251 112)
(139 142)
(64 144)
(13 14)
(18 19)
(145 146)
(34 33)
(32 35)
(36 34)
(33 37)
(37 147)
(147 33)
(39 148)
(40 148)
(14 40)
(41 149)
(39 150)
(47 48)
(56 55)
(56 57)
(56 58)
(58 57)
(53 46)
(65 146)
(40 43)
(72 151)
(72 152)
(152 151)
(153 154)
(154 155)
(155 153)
(91 80)
(97 85)
(75 97)
(14 107)
(39 79)
(93 114)
(93 115)
(73 150)
(79 48)
(32 100)
(156 34)
(73 13)
(41 157)
(121 158)
(127 126)
(129 130)
(129 159)
(159 130)
(116 81)
(116 117)
(117 81)
(123 133)
(48 39)
)

// concaveStart mixedStart nonFeatureStart
2 12 145
// internalStart flatStart openStart multipleStart
112 236 236 433
// normals

558
(
(0.775507 0.262948 -0.573975)
(0.831381 0.3073 -0.463003)
(0.830498 0.306544 -0.465086)
(0 0 1)
(0 0 1)
(0 0 1)
(0.770372 -0.590625 -0.240187)
(0.734829 -0.636792 -0.233499)
(0.717945 -0.65693 -0.230215)
(0.10847 -0.546193 0.830606)
(-0.267408 -0.497958 0.824943)
(-0.265323 -0.498448 0.82532)
(0.0644222 -0.862324 0.502241)
(-0.397252 -0.781337 0.481356)
(-0.380912 -0.787717 0.484156)
(0.0937039 -0.466664 0.879457)
(-0.229299 -0.426849 0.874769)
(0.242006 0.424257 -0.872605)
(-0.99298 0.118152 -0.00549326)
(0.125798 -0.618254 0.775846)
(0.99298 -0.118152 0.00549326)
(-0.288094 -0.621644 0.728396)
(-0.370655 -0.597018 0.711466)
(-0.264184 -0.569191 0.778607)
(-0.263155 -0.569438 0.778774)
(0.81473 0.134981 -0.56391)
(0.842637 0.0869955 -0.531408)
(0.814859 0.134772 -0.563773)
(0.884757 0.105219 -0.45402)
(0.862352 0.151327 -0.483165)
(0.862421 0.151196 -0.483084)
(0.937441 0.140517 -0.318527)
(0.935826 0.139236 -0.323794)
(0.94522 0.155753 -0.286879)
(0.955226 0.102088 -0.277708)
(-0.955529 -0.100165 0.277365)
(-0.945144 -0.156107 0.286937)
(0.888789 0.102566 -0.446693)
(0.794937 0.0544917 -0.604239)
(0.896072 0.106959 -0.43083)
(0.48106 0.163362 -0.861333)
(0.893209 0.247792 -0.375203)
(-0.525948 -0.173656 0.8326)
(-0.748383 -0.164201 -0.642621)
(0.0143757 0.146739 0.989071)
(-0.907612 -0.0568096 0.415948)
(0.907612 0.0568096 -0.415948)
(-0.897831 -0.05301 0.437138)
(0.897831 0.05301 -0.437138)
(0.87422 0.052532 -0.482679)
(0.887874 0.0474532 -0.457632)
(-0.890909 -0.0491209 0.451518)
(0.286996 -0.132639 -0.948704)
(0.0344458 0.188881 0.981396)
(-0.286996 0.132639 0.948704)
(0.736801 -0.63466 -0.233088)
(0.665797 -0.71241 -0.22178)
(0.917487 0.170295 -0.359468)
(0.928759 0.139257 -0.343533)
(0.929114 0.138216 -0.342992)
(0.91742 0.170469 -0.359556)
(0.877003 0.340328 -0.339179)
(0.778441 -0.580706 0.238349)
(-0.778441 0.580706 -0.238349)
(-0.778441 0.580706 -0.238349)
(0.713141 0.54396 -0.442196)
(0.750258 0.602595 -0.272015)
(-0.949805 0.301511 -0.0834315)
(0.519532 0.683908 -0.512207)
(-0.949805 0.301511 -0.0834315)
(0.949805 -0.301511 0.0834315)
(0.497136 0.644377 -0.581063)
(0.667347 0.533259 -0.519888)
(0.901856 0.0828452 -0.42402)
(-0.363324 0.225129 0.904053)
(0.0345112 0.340195 0.939722)
(0.527886 0.142867 0.837213)
(-0.858885 -0.235782 0.454668)
(-0.797095 -0.219078 0.562712)
(0.940418 0.162178 -0.298852)
(0.945693 0.164116 -0.28059)
(0.490327 -0.750537 0.443029)
(0.846457 0.312115 -0.431388)
(0.84664 0.31184 -0.431227)
(0.753177 0.114222 -0.647826)
(0.808119 0.033625 -0.588059)
(-0.888085 -0.0169958 0.459365)
(-0.845556 -0.00637811 0.533848)
(0.845556 0.00637811 -0.533848)
(0.941459 0.0330208 -0.335506)
(0.706472 0.213849 -0.67466)
(0.778337 0.264404 -0.569457)
(0.864179 0.336308 -0.374288)
(0.662788 0.0899053 -0.743391)
(0.491779 0.152943 0.857183)
(0.339211 0.688655 -0.640851)
(-0.333739 -0.675923 0.657074)
(0.282245 0.495938 -0.821208)
(0.263236 0.462067 -0.846877)
(-0.267394 -0.469475 0.841483)
(-0.536155 0.608689 -0.584838)
(0.592094 0.411377 -0.69296)
(0.962545 0.161331 -0.217899)
(0.822965 -0.567644 -0.0225551)
(-0.962879 -0.159743 0.217593)
(-0.96191 -0.164315 0.218472)
(0 0 -1)
(0 0 1)
(0 0 -1)
(-0.875121 -0.483631 -0.0162382)
(0 0 1)
(-0 0 -1)
(-0.447437 -0.892281 -0.0602803)
(-0 0 1)
(0 0 -1)
(0 0 -1)
(0 0 -1)
(-0.0940891 0.289277 0.95261)
(-0.243238 0.360921 0.900317)
(0.243238 -0.360921 -0.900317)
(0.243238 -0.360921 -0.900317)
(0 0 1)
(0 0 1)
(-0 0 -1)
(0.499153 0.0526376 -0.864914)
(-0.54968 -0.0642961 0.832897)
(0.387143 -0.762742 0.51802)
(0.881202 -0.0847207 0.465087)
(-0.0858932 -0.92322 0.374548)
(0.671194 -0.611752 0.418639)
(0.996222 -0.0553376 0.0669276)
(0.133541 -0.729298 0.671037)
(0.984334 0.0300851 0.17373)
(0.972098 -0.0472789 0.229759)
(0.805976 0.447318 0.387697)
(0.918828 0.32213 0.228006)
(0.649155 0.505064 0.568777)
(0.973476 0.171926 -0.150952)
(0.115054 -0.39435 0.91173)
(-0.745657 -0.229866 0.625425)
(0.961856 -0.197708 0.189062)
(0.905594 0.00711481 0.424086)
(0.868497 -0.382359 0.315459)
(0.0277186 0.191632 0.981075)
(0.68152 -0.704789 0.196985)
(0.05363 -0.067411 0.996283)
(0.0524344 0.122023 0.991141)
(0.0157903 0.0234997 0.999599)
(0.574676 0.591018 -0.566079)
(0.862937 0.418351 -0.283412)
(0.0736487 0.00440949 0.997274)
(0 0 -1)
(0 0 -1)
(0.0376924 -0.0318285 0.998782)
(0.859654 0.421749 -0.288312)
(0.0263459 0.180868 0.983154)
(0.0144482 -0.0475364 0.998765)
(0.874932 0.404409 -0.266359)
(0.0251966 0.132078 0.990919)
(0.86815 0.412788 -0.275538)
(0.0163756 0.011716 0.999797)
(0.724772 0.523243 -0.448244)
(0.149475 -0.0434234 0.987812)
(0.915 -0.397296 0.0702271)
(0.997442 -0.02486 -0.0670203)
(0.0118304 -0.0836897 0.996422)
(0.799755 -0.582028 0.14709)
(0.0168042 0.076235 0.996948)
(0.0258745 0.162235 0.986413)
(0.0311176 -0.956439 0.290268)
(0.215081 -0.934312 0.284257)
(0.38607 -0.882362 0.269048)
(0.987826 -0.151674 -0.0345809)
(0.999964 -0.00353508 0.00776851)
(0.997484 -0.047069 -0.0530044)
(0.541913 -0.806205 0.237412)
(0.961147 -0.141704 -0.236887)
(0.993594 0.113003 0.00144613)
(0.906927 0.365707 -0.209146)
(0.953002 0.271124 -0.135197)
(0.999808 0.0167898 -0.0100794)
(0.961146 -0.141717 -0.236887)
(0.92608 0.225713 -0.302373)
(0.926089 0.225682 -0.302369)
(-0.0640367 0.661133 -0.747531)
(-0.283944 0.727553 -0.624534)
(0.322567 0.00386571 -0.946539)
(0.727107 0.0157933 -0.686342)
(0.67452 0.542097 -0.501152)
(0.69047 0.199493 -0.695308)
(-0.0726183 -0.406665 -0.910687)
(-0.913961 -0.122898 0.386745)
(-0.914066 -0.124006 0.386141)
(0.531919 0.648907 -0.544043)
(-0.557063 0.0791442 -0.826691)
(-0.755395 -0.19976 0.624079)
(-0.755792 -0.201528 0.623029)
(0.847504 0.0263889 -0.530133)
(0.658759 0.0160295 -0.752183)
(-0.984703 -0.0587693 -0.164031)
(0.889428 0.0200079 -0.456637)
(-0.754486 -0.199208 0.625353)
(-0.633896 -0.142354 -0.760205)
(0.979284 0.0637439 -0.192199)
(0.826816 0.0107841 -0.562369)
(0.306918 0.124026 -0.94362)
(0.111382 0.0717009 -0.991188)
(0.840443 0.021797 -0.541462)
(0.0487683 0.130727 -0.990218)
(0.866281 0.02925 -0.4987)
(-0.0499711 0.0614839 -0.996856)
(-0.3814 -0.794153 0.473133)
(0.635472 0.496098 -0.59166)
(0.474428 0.353569 -0.806168)
(0.768571 0.0986343 -0.632116)
(0.262136 0.110781 -0.958651)
(0.161547 0.0047996 -0.986853)
(0.0504198 0.0734659 -0.996022)
(0.920704 0.080275 -0.381915)
(-0.572477 0.739821 -0.353462)
(-0.0403538 0.480625 0.875998)
(0 0 1)
(0 0 -1)
(0 0 -1)
(-0.962713 -0.246997 -0.110342)
(-0.0328847 0.368005 0.929242)
(-0.0491837 0.334724 0.941032)
(0.0301741 0.500706 0.865092)
(-0.818737 0.16961 -0.548546)
(-0.918803 -0.0142828 -0.394459)
(-0.815307 -0.564889 0.127182)
(-0.94783 -0.184616 -0.259875)
(0.354461 0.101241 -0.929574)
(-0.651894 -0.729781 0.206046)
(-0.875165 -0.483551 -0.0162428)
(-0.745049 -0.666885 0.0128705)
(-0.0640752 0.307042 0.949536)
(-0.443509 -0.859404 0.254411)
(-0.908002 -0.00502391 -0.418936)
(0 0 1)
(-0.704185 0.3074 -0.640023)
(-0.770515 0.232134 -0.593649)
(-0.781221 0.21836 -0.584818)
(-0.794817 0.200546 -0.572754)
(-0.790645 0.206033 -0.576569)
(-0.805793 0.185954 -0.562244)
(-0.833225 0.144714 -0.53366)
(-0.910587 -0.412067 0.032126)
(-0.572629 0.423021 -0.702246)
(-0.422334 0.509646 -0.749597)
(0 0 -1)
(0 0 1)
(0 0 -1)
(0 0 -1)
(0.75856 0.21716 -0.614352)
(-0.264158 -0.532909 0.803884)
(0.743821 0.204482 -0.636331)
(-0.885344 -0.0823082 0.457592)
(-0.899769 -0.0527475 0.433166)
(0.901959 0.131011 -0.411469)
(-0.845076 -0.0244872 0.534085)
(0.336338 0.319676 0.885824)
(-0.449805 -0.115698 0.885601)
(-0.825144 -0.0169225 0.564669)
(0 0 -1)
(0 0 -1)
(0 0 -1)
(0 0 -1)
(0 0 -1)
(0 0 -1)
(-0 0 -1)
(0 0 -1)
(-0 0 -1)
(-0 0 -1)
(0 0 -1)
(0 0 -1)
(0 0 -1)
(0 0 -1)
(0 0 1)
(-0 0 -1)
(-0 0 -1)
(-0 0 -1)
(-0 0 -1)
(0 0 -1)
(-0.791628 -0.00945751 0.61093)
(-0.770581 0.0356384 0.636345)
(-0.405775 -0.367676 0.836756)
(0.498344 0.183645 -0.847306)
(-0.839111 -0.0236874 0.543444)
(-0.760917 0.0414891 0.647521)
(-0.475646 -0.174741 0.862106)
(0.66254 0.0758568 -0.745175)
(0.854202 0.473457 0.214889)
(0.532544 0.53984 0.651897)
(0.635371 -0.00811744 -0.772164)
(0.0852345 -0.083455 0.99286)
(-0.0813742 -0.0100953 0.996632)
(0.479019 0.0399292 -0.876896)
(0.875595 0.134578 0.463921)
(0.509873 -0.0623867 -0.857984)
(0.941761 0.129779 -0.310231)
(0.983293 0.113548 0.142273)
(0.834069 0.190905 -0.517575)
(0.781159 -0.0154912 0.62414)
(0.927833 0.319145 0.193058)
(0.697308 -0.176362 0.694736)
(0.981957 -0.0195847 0.18809)
(0.900425 0.0055109 0.434976)
(0.896517 -0.0216618 -0.442479)
(0.809742 -0.158725 0.564911)
(0.997002 -0.0249539 0.073241)
(0.540708 0.240618 -0.806064)
(0.99892 0.0268164 0.0379453)
(0.919174 0.386955 0.0733787)
(-0.842 -0.202392 0.500073)
(0.50083 0.309071 0.808483)
(0.711941 -0.664354 0.22754)
(0.897918 0.336887 -0.283287)
(0.905114 0.410953 0.109028)
(0.96755 0.241179 -0.0753576)
(0.529619 0.605077 -0.594462)
(0.600123 0.318041 -0.733964)
(-0.141405 0.267437 -0.953143)
(-0.12737 0.492556 -0.86091)
(-0.594517 0.50977 -0.621839)
(0.677495 -0.698261 -0.231155)
(0 0 1)
(0.939717 -0.312855 -0.138038)
(0 0 1)
(0.926086 0.225697 -0.302367)
(0.673781 0.299934 -0.675321)
(-0.21252 0.541011 -0.813722)
(-0.22349 0.959243 -0.172928)
(-0.214734 0.62379 -0.751515)
(-0.288463 -0.259479 0.921662)
(-0.269986 0.17405 -0.947003)
(-0.280035 0.233487 -0.931163)
(0.940264 0.161917 -0.299477)
(0.719936 0.296137 0.62769)
(0.941314 0.266476 -0.207166)
(-0.798483 -0.219056 0.560749)
(-0.00355911 -0.143212 0.989686)
(-0.927633 -0.0907461 0.362302)
(0.950008 0.0850085 -0.30043)
(-0.932157 -0.106975 0.34589)
(0.938824 0.10172 -0.329034)
(0.830126 0.0282321 -0.556861)
(-0.963179 -0.035204 0.266546)
(-0.917267 -0.110895 0.382521)
(0.925221 0.105089 -0.364586)
(-0.710772 -0.246044 0.658988)
(0.696529 0.220665 -0.682755)
(-0.528318 -0.234101 0.816135)
(-0.790019 -0.462851 -0.402042)
(-0.930494 -0.103857 0.351277)
(0.947548 0.0995425 -0.303717)
(-0.965527 -0.210822 0.152681)
(0.974832 0.192021 -0.113271)
(-0.520155 -0.234659 0.821203)
(0.586517 0.230182 -0.77654)
(0.157361 -0.0366201 -0.986862)
(-0.941325 -0.132602 0.310362)
(0.950732 0.123669 -0.284277)
(0.962238 0.109718 -0.249117)
(0.14284 0.111 -0.983502)
(0.378357 -0.0564388 -0.923938)
(0.912386 0.407662 -0.0369079)
(0.885575 0.0470943 -0.462103)
(0.856892 -0.514819 0.0264141)
(0.964818 0.178279 -0.193243)
(-0.910425 -0.143092 0.388139)
(0.936945 0.106351 0.332902)
(0.269547 0.473064 -0.838782)
(-0.663143 0.163532 -0.73041)
(-0.995773 -0.0160893 -0.0904267)
(-0.897668 0.189466 -0.397862)
(-0.34885 0.306401 -0.885676)
(-0.465735 0.17725 -0.866991)
(-0.93274 0.0242177 -0.359734)
(0.870462 0.210818 -0.444806)
(0.924422 0.315037 0.214933)
(0.822007 0.188987 -0.537204)
(0.839272 0.0219921 -0.543267)
(-0.815704 0.0067652 0.57843)
(-0.973911 -0.226711 -0.00994055)
(0.92948 0.14473 -0.339295)
(-0.940782 -0.130698 0.312805)
(-0.398745 0.716064 0.572936)
(-0.596811 -0.802124 0.0203308)
(-0.965484 0.220728 -0.138277)
(0.634775 0.495537 -0.592878)
(-0.593056 -0.470441 0.653429)
(-0.516913 -0.23658 0.822697)
(-0.22025 0.100884 -0.970213)
(0.944048 0.0422581 -0.32709)
(0.874625 0.171288 -0.453533)
(-0.840475 -0.187334 0.508437)
(-0.873558 -0.169356 0.456306)
(-0.863333 -0.049509 0.5022)
(0.944825 0.0456029 -0.324387)
(-0.937008 -0.0961924 0.335801)
(0.497109 0.643177 -0.582413)
(-0.46283 -0.637197 0.616254)
(-0.949877 -0.117029 0.289894)
(0.948232 0.117581 -0.295011)
(-0.963106 -0.169849 0.208753)
(-0.91186 -0.169248 0.373987)
(0.898571 0.336795 -0.281318)
(-0.929871 -0.153388 0.334384)
(0.757201 0.0995979 -0.645544)
(-0.834662 0.2578 -0.486701)
(-0.284849 0.320884 -0.903269)
(-0.864349 0.227799 -0.448339)
(-0.252279 0.333127 -0.908505)
(-0.326246 -0.118688 0.937804)
(0.674789 0.122618 -0.727753)
(0.765042 -0.0122677 -0.643864)
(0.281665 -0.202799 -0.937836)
(-0.20555 -0.0740496 0.975841)
(-0.470319 0.354251 -0.808274)
(0.644532 0.367409 0.670514)
(-0.173525 0.387863 -0.905236)
(0.811264 0.257889 0.524732)
(0.0314012 0.120887 0.99217)
(0.680066 0.304521 -0.666916)
(0.0955821 -0.0190013 0.99524)
(0.0452378 0.129997 0.990482)
(0.89337 -0.191928 0.406269)
(0.893167 0.140184 -0.427318)
(0.895785 0.112284 0.430072)
(0.529105 -0.116638 0.840502)
(0.92355 -0.312302 0.222535)
(0.0242226 0.171105 0.984955)
(0.75565 -0.0154167 0.654794)
(0.715173 -0.0219081 0.698604)
(0.593284 0.228228 -0.771963)
(0.995349 0.0958432 0.00974454)
(0.579174 0.261566 -0.772101)
(0.243132 -0.110847 0.963639)
(0.956291 0.00394818 0.29239)
(0.0595158 0.0123492 0.998151)
(0.925785 -0.107939 0.362313)
(0.918683 0.37144 0.134364)
(-0.855801 0.0301854 -0.516424)
(0.942882 0.315219 0.107756)
(0.974179 -0.148643 -0.169941)
(0.023968 0.206841 0.978081)
(0.960343 0.162718 -0.226414)
(0.0241996 0.190871 0.981317)
(0.447378 -0.262574 0.854931)
(0.023294 0.144071 0.989293)
(0.963262 0.170994 -0.207094)
(0.797417 0.457872 -0.39304)
(0 0 -1)
(-0.913181 -0.024117 0.40684)
(0.86723 0.072865 0.492548)
(0.377046 0.597287 -0.707873)
(-0.396151 0.854677 -0.335547)
(-0 0 -1)
(0.648535 0.622963 -0.437402)
(0 0 -1)
(0.0835384 0.902008 -0.423559)
(0 0 -1)
(-0.888302 -0.018377 0.458892)
(0.972318 0.0489895 -0.228468)
(-0.866529 -0.013504 0.498944)
(0.969724 0.0182334 -0.24352)
(0.961147 -0.141707 -0.236886)
(0 0 -1)
(0.307088 -0.920449 -0.241808)
(0 0 -1)
(-0.0315776 0.880849 -0.472343)
(-0.557464 0.750904 -0.354085)
(-0.480582 0.735917 -0.476935)
(0.047226 0.940554 -0.336344)
(0.325309 0.856512 -0.400701)
(0 0 -1)
(0.148469 0.617607 -0.772346)
(0.103654 -0.964513 -0.242839)
(0 0 -1)
(0.485649 -0.843882 -0.228054)
(0 0 -1)
(0 0 -1)
(0 0 -1)
(0 0 1)
(0 0 -1)
(0 0 -1)
(0.842125 -0.49972 -0.202746)
(0 0 -1)
(0.842139 -0.499695 -0.20275)
(-0.171426 0.927713 -0.331603)
(-0 0 -1)
(-0.248045 0.377991 -0.891962)
(0.503289 0.727874 -0.465725)
(0 0 -1)
(-0.195166 0.216626 -0.956548)
(0.644869 0.21223 -0.734236)
(-0.866047 -0.15537 0.475209)
(0.838148 0.167799 -0.51899)
(-0.778219 0.0163357 0.627781)
(-0.128354 -0.293397 -0.947335)
(0.450513 -0.013038 -0.892675)
(0.966289 0.175537 -0.188339)
(0.899151 0.0308433 -0.436549)
(0.640147 -0.000186683 -0.768253)
(-0.317889 -0.680779 0.659914)
(0.536351 0.717264 -0.444816)
(-0.303764 -0.236644 -0.922891)
(0.558713 0.432407 -0.707718)
(0.793458 0.017667 -0.608369)
(-0.897948 0.390591 -0.202802)
(-0.997662 -0.00477837 -0.0681733)
(-0.78399 -0.60806 -0.124987)
(-0.330534 -0.937594 -0.108)
(0 0 1)
(0 0 -1)
(-0.0662843 -0.96912 -0.237512)
(-0 0 -1)
(-0.933674 -0.35812 0.00189332)
(0 0 -1)
(-0.714909 -0.682623 -0.151426)
(-0.201879 -0.966314 -0.15963)
(-0.868832 -0.173733 0.463625)
(0.837508 0.188421 -0.512912)
(0 0 -1)
(-0.0961429 0.29569 0.950434)
(-0.830469 -0.00434126 0.557048)
(0 0 -1)
(0 0 1)
(0 0 -1)
(0 0 -1)
(-0.725485 0.625334 -0.287451)
(0 0 -1)
(-0.825866 0.504451 -0.251942)
(-0.494827 -0.0940184 0.86389)
(0.949782 -0.00203055 0.312904)
(-0.586121 -0.462763 0.665066)
(-0.786007 -0.0286411 0.617554)
(0.757827 0.207868 -0.618457)