/*--------------------------------*- C++ -*----------------------------------*\
| =========                 |                                                 |
| \\      /  F ield         | OpenFOAM: The Open Source CFD Toolbox           |
|  \\    /   O peration     | Version:  2.2.x                                 |
|   \\  /    A nd           | Web:      www.OpenFOAM.org                      |
|    \\/     M anipulation  |                                                 |
\*---------------------------------------------------------------------------*/
FoamFile
{
    version     2.0;
    format      ascii;
    class       extendedFeatureEdgeMesh;
    location    "constant/extendedFeatureEdgeMesh";
    object      foot_right.extendedFeatureEdgeMesh;
}
// * * * * * * * * * * * * * * * * * * * * * * * * * * * * * * * * * * * * * //

// points

354
(
(1.64979 3.43272 0.00326252)
(1.6502 3.46402 0.0168004)
(1.7162 3.56746 0.00271094)
(1.71704 3.44252 0.00673413)
(1.71746 3.55481 0.00531101)
(1.71761 3.5612 0.00396323)
(1.67183 3.55302 0.00436294)
(1.6633 3.51281 0.0071063)
(1.6633 3.51279 0.00708485)
(1.64969 3.43143 0.00339866)
(1.64843 3.43894 0.010604)
(1.64825 3.43395 0.00914729)
(1.68427 3.58365 0.0030452)
(1.68461 3.58191 0.00147939)
(1.66368 3.51274 0.00697517)
(1.67221 3.56803 0.0097152)
(1.66922 3.55855 0.0160102)
(1.65095 3.46846 0.0175724)
(1.65027 3.4362 0.00272381)
(1.64982 3.43129 0.00322306)
(1.69329 3.59179 0.00590372)
(1.68504 3.57964 0.000107765)
(1.68825 3.58944 0.00604737)
(1.6887 3.5867 0.00286949)
(1.66839 3.55455 0.0916016)
(1.71551 3.55811 0.0916016)
(1.69577 3.51475 0.0916016)
(1.69128 3.51433 0.0916016)
(1.68306 3.51696 0.0916016)
(1.67655 3.57806 0.00790131)
(1.67775 3.57318 0.00156093)
(1.68289 3.59053 0.0145642)
(1.68373 3.58633 0.00646591)
(1.67553 3.58174 0.0163381)
(1.65944 3.51397 0.0232569)
(1.65074 3.46905 0.0178284)
(1.68824 3.58949 0.00611603)
(1.66824 3.55995 0.0203047)
(1.66834 3.55943 0.0198399)
(1.65944 3.51399 0.0232737)
(1.65029 3.44106 0.00291336)
(1.64787 3.42273 0.00606191)
(1.67712 3.57574 0.00410593)
(1.67274 3.5661 0.00574124)
(1.67655 3.57804 0.00784111)
(1.71865 3.41412 0.0161523)
(1.67049 3.55567 0.00759924)
(1.68426 3.5837 0.00309038)
(1.67712 3.57571 0.00406694)
(1.65976 3.51409 0.0229142)
(1.67317 3.56474 0.00389755)
(1.67751 3.57413 0.00233066)
(1.65287 3.47246 0.00525284)
(1.65254 3.47226 0.00541115)
(1.6506 3.45181 0.00390911)
(1.64794 3.42559 0.0068208)
(1.6688 3.55907 0.0182344)
(1.67274 3.56609 0.00571227)
(1.67101 3.55452 0.00572383)
(1.64834 3.43458 0.00921965)
(1.68769 3.58572 0.0916016)
(1.68551 3.58495 0.0916016)
(1.66295 3.51288 0.00734246)
(1.65288 3.47248 0.00527668)
(1.64806 3.42976 0.00799358)
(1.64797 3.42503 0.00656974)
(1.648 3.42838 0.00763035)
(1.64874 3.44567 0.0124495)
(1.64869 3.44498 0.0122769)
(1.64866 3.44394 0.0119904)
(1.64866 3.4432 0.0117503)
(1.64803 3.42907 0.00781262)
(1.64841 3.44082 0.0112153)
(1.64789 3.42701 0.00736225)
(1.64791 3.42563 0.00688958)
(1.64813 3.43113 0.00835145)
(1.6481 3.43045 0.00817323)
(1.648 3.43185 0.0087657)
(1.64816 3.43599 0.00992155)
(1.64821 3.43251 0.00870347)
(1.67154 3.56894 0.0916016)
(1.67159 3.55342 0.00462008)
(1.65923 3.51471 0.0236056)
(1.64988 3.43148 0.00313795)
(1.65067 3.44173 0.00271833)
(1.64787 3.42356 0.00632214)
(1.64782 3.42283 0.00602388)
(1.64982 3.43131 0.00319231)
(1.64783 3.4228 0.00603008)
(1.64817 3.43182 0.00852823)
(1.64896 3.44896 0.0133055)
(1.648 3.42694 0.0071466)
(1.64797 3.42626 0.00698447)
(1.64972 3.45899 0.0157054)
(1.64931 3.45397 0.014542)
(1.64791 3.42491 0.00665569)
(1.64855 3.4429 0.0117515)
(1.6485 3.44221 0.011574)
(1.64977 3.43076 0.00327671)
(1.65065 3.44149 0.00268233)
(1.64901 3.42681 0.00432992)
(1.69286 3.59618 0.0133927)
(1.64788 3.42563 0.00695026)
(1.64789 3.42494 0.00670171)
(1.65324 3.47269 0.00525057)
(1.65086 3.45144 0.003775)
(1.64787 3.42494 0.00674236)
(1.64806 3.42459 0.00621223)
(1.68435 3.4057 0.024628)
(1.648 3.42247 0.00613415)
(1.6941 3.58463 0.000163317)
(1.71099 3.39206 0.0098753)
(1.71404 3.54275 0.00780034)
(1.70684 3.51866 0.0106337)
(1.71934 3.42015 0.0183557)
(1.71737 3.40517 0.0154135)
(1.68034 3.39121 0.0147735)
(1.71329 3.39374 0.0146669)
(1.71209 3.39043 0.0163885)
(1.70986 3.3865 0.0176017)
(1.70986 3.38675 0.0174974)
(1.71519 3.39765 0.0153091)
(1.71149 3.58857 0.0146534)
(1.7102 3.38708 0.0173877)
(1.69465 3.38713 0.0165268)
(1.68815 3.43375 0.0307074)
(1.72084 3.43552 0.0286241)
(1.71698 3.4434 0.00681901)
(1.7075 3.49496 0.0103397)
(1.71777 3.55921 0.00480652)
(1.71515 3.54602 0.00724363)
(1.71515 3.54618 0.00731158)
(1.70736 3.52143 0.0108146)
(1.70722 3.52113 0.010628)
(1.70716 3.52098 0.0105646)
(1.68462 3.58188 0.00145638)
(1.69382 3.58707 0.00142634)
(1.71262 3.53171 0.0916016)
(1.7074 3.52262 0.0916016)
(1.70012 3.5164 0.0916016)
(1.71515 3.54033 0.0916016)
(1.70401 3.5191 0.0916016)
(1.68703 3.51512 0.0916016)
(1.67751 3.57416 0.0023489)
(1.66851 3.5593 0.0193125)
(1.67118 3.55417 0.00530839)
(1.64825 3.4332 0.00887716)
(1.67138 3.5538 0.00493586)
(1.64795 3.42435 0.00638509)
(1.64792 3.42429 0.00644684)
(1.64904 3.42746 0.00438487)
(1.6887 3.58665 0.00282228)
(1.66822 3.55454 0.0916016)
(1.64962 3.43154 0.00354981)
(1.64949 3.43167 0.00379205)
(1.64822 3.43737 0.0102972)
(1.64826 3.43806 0.0104833)
(1.6483 3.43875 0.010668)
(1.64833 3.43944 0.0108517)
(1.64837 3.44013 0.0110341)
(1.64796 3.43047 0.00837076)
(1.64798 3.43116 0.00856888)
(1.64795 3.42978 0.00817156)
(1.64846 3.44152 0.0113953)
(1.6481 3.43461 0.00954115)
(1.64807 3.43392 0.00934911)
(1.67102 3.5676 0.0916016)
(1.6684 3.55634 0.0916016)
(1.6479 3.42771 0.00756645)
(1.66834 3.54464 0.0916016)
(1.64819 3.43668 0.01011)
(1.68758 3.59381 0.0138876)
(1.64789 3.42423 0.0064894)
(1.64788 3.42632 0.00715685)
(1.64971 3.43041 0.00334466)
(1.64966 3.43007 0.00341892)
(1.64859 3.44359 0.011928)
(1.64864 3.44429 0.012103)
(1.64955 3.42943 0.0035671)
(1.64944 3.42887 0.0037092)
(1.64793 3.42909 0.00797105)
(1.64802 3.43254 0.00896132)
(1.67095 3.53324 0.0916016)
(1.64805 3.43323 0.00915587)
(1.67804 3.57211 0.00092411)
(1.67382 3.56296 0.00248241)
(1.64792 3.4284 0.00776935)
(1.64787 3.42425 0.00653327)
(1.65096 3.46844 0.0175424)
(1.68724 3.45952 0.0439306)
(1.68831 3.4429 0.0338629)
(1.68737 3.42421 0.0288924)
(1.64791 3.42277 0.00611854)
(1.64789 3.42288 0.00612867)
(1.6758 3.52384 0.0916016)
(1.67909 3.52003 0.0916016)
(1.64787 3.42331 0.00624347)
(1.69096 3.58329 5.38826e-05)
(1.68811 3.58177 2.49147e-05)
(1.68314 3.57805 0.000225782)
(1.67938 3.57398 0.000672817)
(1.65012 3.43333 0.00286698)
(1.67652 3.56953 0.00132883)
(1.67442 3.5648 0.00214374)
(1.69834 3.58375 0.000140071)
(1.66292 3.51036 0.00685322)
(1.65298 3.47132 0.00523424)
(1.673 3.55989 0.00306284)
(1.67147 3.55011 0.0048914)
(1.66877 3.53021 0.00719798)
(1.70214 3.58244 0.000231028)
(1.65977 3.51405 0.0228853)
(1.68585 3.59278 0.0140992)
(1.68455 3.50816 0.075296)
(1.68555 3.49409 0.0626366)
(1.67315 3.52819 0.0916016)
(1.64917 3.42001 0.00672018)
(1.64837 3.42164 0.00632489)
(1.66117 3.40378 0.0109136)
(1.67017 3.3966 0.0129965)
(1.7201 3.53192 0.0379453)
(1.71953 3.55917 0.030645)
(1.72032 3.476 0.0341913)
(1.72036 3.50389 0.0383856)
(1.69051 3.38794 0.0160985)
(1.65384 3.48855 0.021126)
(1.66518 3.54513 0.0223012)
(1.6722 3.57455 0.0177375)
(1.67542 3.58155 0.0163759)
(1.648 3.43411 0.00948977)
(1.66767 3.39832 0.0124757)
(1.65714 3.40806 0.00975335)
(1.64787 3.42677 0.00731897)
(1.67994 3.58779 0.0151182)
(1.66296 3.51286 0.0073055)
(1.65362 3.4126 0.0085721)
(1.65256 3.47222 0.00534666)
(1.64798 3.43366 0.00936091)
(1.71167 3.38964 0.0165921)
(1.71062 3.38775 0.0171586)
(1.71163 3.58843 0.0147235)
(1.71522 3.39773 0.0153037)
(1.70115 3.59484 0.0125065)
(1.70501 3.59323 0.0127863)
(1.71949 3.42303 0.0191839)
(1.71759 3.40621 0.015518)
(1.69706 3.59584 0.0127041)
(1.71034 3.38729 0.0173159)
(1.71001 3.38687 0.0174598)
(1.70854 3.59108 0.0135298)
(1.68485 3.50512 0.0717546)
(1.68404 3.5121 0.0810256)
(1.72028 3.5174 0.0388946)
(1.72037 3.48572 0.0360676)
(1.71979 3.54852 0.034481)
(1.71939 3.56368 0.028572)
(1.68606 3.41472 0.0272561)
(1.6879 3.45134 0.0385938)
(1.68588 3.48566 0.0577898)
(1.69329 3.59175 0.00580406)
(1.69974 3.59526 0.0125207)
(1.70611 3.59264 0.0129612)
(1.71884 3.57163 0.0242978)
(1.71534 3.58344 0.017406)
(1.69359 3.58907 0.00295436)
(1.69379 3.58731 0.0015831)
(1.71414 3.58539 0.0163178)
(1.71739 3.57862 0.0202136)
(1.66222 3.47041 0.030086)
(1.66245 3.46773 0.0291698)
(1.66184 3.47574 0.0317841)
(1.67222 3.56804 0.00976336)
(1.66355 3.51871 0.0429579)
(1.65817 3.46074 0.0250871)
(1.66133 3.5082 0.0364913)
(1.71964 3.44217 0.0242728)
(1.66249 3.4674 0.0290658)
(1.65165 3.46912 0.0168934)
(1.65146 3.46891 0.0171802)
(1.66002 3.51415 0.0225028)
(1.6481 3.42651 0.00680911)
(1.64817 3.42724 0.0069238)
(1.64793 3.42632 0.0070765)
(1.64813 3.4353 0.00973189)
(1.64964 3.43078 0.00348163)
(1.64813 3.42593 0.0064894)
(1.64804 3.42514 0.00644171)
(1.64781 3.42291 0.0060283)
(1.64888 3.42764 0.00467014)
(1.6497 3.45749 0.0153037)
(1.64918 3.4518 0.0139951)
(1.64785 3.42276 0.0060426)
(1.65 3.45098 0.00439346)
(1.65183 3.47163 0.00665677)
(1.65034 3.44101 0.00281918)
(1.65057 3.4413 0.00270283)
(1.64976 3.43111 0.0033077)
(1.65 3.43522 0.00296354)
(1.65021 3.44075 0.0029279)
(1.66984 3.55729 0.0117345)
(1.68372 3.58637 0.00653303)
(1.65088 3.45211 0.0038631)
(1.67347 3.56389 0.00310016)
(1.65076 3.45195 0.00384677)
(1.64831 3.42871 0.00713861)
(1.64839 3.42945 0.00723708)
(1.65035 3.45151 0.00401795)
(1.71564 3.40095 0.0132565)
(1.6949 3.51085 0.0834663)
(1.69287 3.51278 0.0873327)
(1.71009 3.38966 0.0205189)
(1.72055 3.49465 0.0448234)
(1.72124 3.50446 0.049492)
(1.71976 3.46479 0.038642)
(1.70765 3.49352 0.0102315)
(1.71721 3.41698 0.0076381)
(1.71667 3.4771 0.0481617)
(1.72163 3.51331 0.0535282)
(1.71513 3.54649 0.00749099)
(1.64893 3.44597 0.0123725)
(1.65319 3.4457 0.0193374)
(1.64992 3.43531 0.0031153)
(1.64954 3.43018 0.00361299)
(1.66023 3.5142 0.0220449)
(1.68579 3.58506 0.0916016)
(1.67949 3.58097 0.0916016)
(1.67609 3.57718 0.0916016)
(1.66175 3.51339 0.0101486)
(1.69208 3.58632 0.0916016)
(1.68987 3.58617 0.0916016)
(1.66202 3.51322 0.00903666)
(1.64782 3.42317 0.00613403)
(1.6478 3.42299 0.00605106)
(1.64987 3.46042 0.0160136)
(1.66923 3.55853 0.016036)
(1.68342 3.5839 0.0916016)
(1.71703 3.4168 0.00705183)
(1.71319 3.57328 0.00162542)
(1.70856 3.57839 0.000772715)
(1.71425 3.39604 0.0143667)
(1.71105 3.39326 0.0230634)
(1.71033 3.38976 0.0204953)
(1.71011 3.57415 0.0916016)
(1.70513 3.58053 0.0916016)
(1.71126 3.3934 0.0230171)
(1.71353 3.56652 0.0916016)
(1.69901 3.58482 0.0916016)
(1.69601 3.51105 0.0834937)
(1.71927 3.41953 0.0251067)
(1.72123 3.45002 0.0332502)
(1.72003 3.49832 0.0544295)
(1.71703 3.56557 0.00350034)
(1.71475 3.57149 0.00235832)
(1.69565 3.58594 0.0916016)
)

// edges

495
(
(19 18)
(268 269)
(270 268)
(15 271)
(270 272)
(22 32)
(273 274)
(41 19)
(45 275)
(276 269)
(277 278)
(279 49)
(32 48)
(280 281)
(59 72)
(282 73)
(77 71)
(283 78)
(79 283)
(284 40)
(54 83)
(83 84)
(56 16)
(31 36)
(285 286)
(287 86)
(288 41)
(289 290)
(88 291)
(291 41)
(69 75)
(10 69)
(91 285)
(92 75)
(286 55)
(94 90)
(290 94)
(59 97)
(97 96)
(76 66)
(292 293)
(98 294)
(19 295)
(296 297)
(297 298)
(51 13)
(86 100)
(16 299)
(300 32)
(301 105)
(302 30)
(102 74)
(52 104)
(84 99)
(99 303)
(107 65)
(304 305)
(36 32)
(305 79)
(104 301)
(105 84)
(53 306)
(120 111)
(117 307)
(42 57)
(50 302)
(308 309)
(309 27)
(125 108)
(310 124)
(126 311)
(312 313)
(128 314)
(112 130)
(127 315)
(316 317)
(131 129)
(118 120)
(132 133)
(133 134)
(128 113)
(134 113)
(132 318)
(133 131)
(61 324)
(324 60)
(67 90)
(8 6)
(284 9)
(14 6)
(17 319)
(34 17)
(274 320)
(321 0)
(0 40)
(40 321)
(322 41)
(29 42)
(271 43)
(9 0)
(35 1)
(56 323)
(278 279)
(62 53)
(325 326)
(281 64)
(327 46)
(65 282)
(71 280)
(328 329)
(293 330)
(10 59)
(81 7)
(40 18)
(18 54)
(54 40)
(38 82)
(82 39)
(331 332)
(15 37)
(84 54)
(323 277)
(85 331)
(87 18)
(332 287)
(319 289)
(83 18)
(87 83)
(330 327)
(10 75)
(92 69)
(1 93)
(93 94)
(1 333)
(92 66)
(70 67)
(295 98)
(99 19)
(298 296)
(76 304)
(10 97)
(87 84)
(299 334)
(326 80)
(335 325)
(300 47)
(334 56)
(104 63)
(14 104)
(303 84)
(99 87)
(67 17)
(111 336)
(306 292)
(336 3)
(314 113)
(113 112)
(5 2)
(2 337)
(4 5)
(337 338)
(45 115)
(114 45)
(117 118)
(339 117)
(329 60)
(61 335)
(111 119)
(114 275)
(43 50)
(340 341)
(342 343)
(119 344)
(25 345)
(27 308)
(345 342)
(343 346)
(119 341)
(347 26)
(126 348)
(349 126)
(350 316)
(313 317)
(3 127)
(127 128)
(129 5)
(4 129)
(130 4)
(312 349)
(315 3)
(131 4)
(351 5)
(307 339)
(2 352)
(112 134)
(134 130)
(128 134)
(2 351)
(346 353)
(353 328)
(133 130)
(131 132)
(7 8)
(10 11)
(151 12)
(20 22)
(23 151)
(152 24)
(24 25)
(31 22)
(32 31)
(33 31)
(36 20)
(153 9)
(154 153)
(49 39)
(51 48)
(155 156)
(52 53)
(55 35)
(9 154)
(156 157)
(44 15)
(53 63)
(158 159)
(160 161)
(162 160)
(72 163)
(164 165)
(166 167)
(73 168)
(24 169)
(161 77)
(170 155)
(167 24)
(33 32)
(171 31)
(35 82)
(82 34)
(12 48)
(8 62)
(172 85)
(89 10)
(90 70)
(7 62)
(11 89)
(90 91)
(49 34)
(93 55)
(94 92)
(92 93)
(41 87)
(95 172)
(55 92)
(55 95)
(64 75)
(73 173)
(89 76)
(94 55)
(55 90)
(157 158)
(98 174)
(174 175)
(176 177)
(19 98)
(175 178)
(143 51)
(96 176)
(20 101)
(101 171)
(103 173)
(179 100)
(180 162)
(150 88)
(178 179)
(181 77)
(35 96)
(69 35)
(22 36)
(169 182)
(183 181)
(184 185)
(168 186)
(186 180)
(97 69)
(106 187)
(13 21)
(185 6)
(102 106)
(21 184)
(74 106)
(165 183)
(148 107)
(35 78)
(10 35)
(17 188)
(189 190)
(190 191)
(192 193)
(109 192)
(177 68)
(194 195)
(163 97)
(78 170)
(191 108)
(159 72)
(85 107)
(193 196)
(197 198)
(198 199)
(199 200)
(105 201)
(200 202)
(110 197)
(201 83)
(202 203)
(8 81)
(204 110)
(205 206)
(203 207)
(207 208)
(208 209)
(210 204)
(209 205)
(206 105)
(67 35)
(110 21)
(136 110)
(187 85)
(211 39)
(100 41)
(212 101)
(213 214)
(215 194)
(115 114)
(216 217)
(218 219)
(220 221)
(219 116)
(182 215)
(222 223)
(116 224)
(225 226)
(80 166)
(119 120)
(83 41)
(227 228)
(229 225)
(41 109)
(230 231)
(196 232)
(214 189)
(223 220)
(121 115)
(228 233)
(116 230)
(217 109)
(231 216)
(114 222)
(234 8)
(235 218)
(224 119)
(164 10)
(51 42)
(63 236)
(236 52)
(28 213)
(195 28)
(7 234)
(233 212)
(232 237)
(34 211)
(109 235)
(237 229)
(226 227)
(188 34)
(238 239)
(122 240)
(241 121)
(121 238)
(242 243)
(244 245)
(246 242)
(247 123)
(239 247)
(123 248)
(249 122)
(250 251)
(248 119)
(252 253)
(245 241)
(253 244)
(254 252)
(255 254)
(108 256)
(256 125)
(125 257)
(257 258)
(119 124)
(101 259)
(260 101)
(261 260)
(120 123)
(123 118)
(118 121)
(262 263)
(264 265)
(265 110)
(259 264)
(110 210)
(122 261)
(221 262)
(263 122)
(240 266)
(124 116)
(258 250)
(251 28)
(267 255)
(101 246)
(243 249)
(266 267)
(51 135)
(152 80)
(12 13)
(8 14)
(135 136)
(23 20)
(22 23)
(26 27)
(137 138)
(139 26)
(25 140)
(140 137)
(138 141)
(142 28)
(27 142)
(141 139)
(29 15)
(21 30)
(17 35)
(38 39)
(37 38)
(33 29)
(44 42)
(29 44)
(43 46)
(47 48)
(48 42)
(143 12)
(12 47)
(43 15)
(12 23)
(50 51)
(144 56)
(43 57)
(48 44)
(38 144)
(58 145)
(47 22)
(32 47)
(60 61)
(50 57)
(58 50)
(146 11)
(145 147)
(69 67)
(67 68)
(68 69)
(46 58)
(69 70)
(6 81)
(37 16)
(37 56)
(19 87)
(65 148)
(63 8)
(86 88)
(85 149)
(75 89)
(91 92)
(147 7)
(89 79)
(79 11)
(69 90)
(149 95)
(79 146)
(95 65)
(66 71)
(71 64)
(76 64)
(30 51)
(150 86)
(102 103)
(74 103)
(103 106)
)

// concaveStart mixedStart nonFeatureStart
0 6 135
// internalStart flatStart openStart multipleStart
87 202 202 423
// normals

580
(
(0.416886 -0.562265 0.714188)
(0.594461 -0.471383 0.651471)
(0.416591 -0.562389 0.714262)
(0.277998 0.00605885 0.960562)
(-0.262238 0.109614 -0.958757)
(-0.277467 -0.00164763 -0.960734)
(0.262063 -0.110762 0.958674)
(-0.263267 0.462069 -0.846866)
(0.267443 -0.469508 0.841449)
(0.279613 -0.491188 0.824955)
(0.339136 -0.688628 0.64092)
(0.227097 -0.642001 0.732299)
(0.317889 -0.680779 0.659914)
(0.464497 -0.637517 0.614666)
(-0.463595 0.637943 -0.614905)
(0 0 -1)
(-0.0849959 0.917965 -0.387448)
(-0 0 -1)
(0 0 -1)
(-0.797409 0.457878 -0.393048)
(-0 0 -1)
(0 0 -1)
(-0.325323 0.856524 -0.400664)
(-0 0 -1)
(0 0 -1)
(-0.957235 0.019391 -0.288662)
(-0 0 -1)
(-0.911729 0.267206 -0.312011)
(-0 0 -1)
(0 0 -1)
(-0.648444 0.62305 -0.437412)
(-0 0 -1)
(0 0 -1)
(0.399638 0.861521 -0.313163)
(0 0 -1)
(0 0 -1)
(0.171874 0.931269 -0.321243)
(0 0 -1)
(0 0 -1)
(-0.503374 0.727819 -0.465719)
(0 0 -1)
(-0.905117 0.410944 0.10903)
(-0.902874 0.3435 -0.258508)
(-0.897922 0.336879 -0.283283)
(-0.493204 0.38006 -0.782499)
(-0.493406 0.380348 -0.782231)
(-0.474405 0.353538 -0.806195)
(-0.481536 0.19654 -0.854105)
(-0.417904 0.229542 -0.879015)
(-0.401332 0.237727 -0.884544)
(-0.915452 0.151189 -0.372947)
(-0.7572 0.0995795 -0.645548)
(0.736461 -0.0936708 0.669963)
(-0.928617 0.15653 -0.336405)
(-0.938844 0.105805 -0.327685)
(-0.913564 0.154498 -0.376206)
(-0.738001 0.581464 -0.342424)
(-0.73852 0.58091 -0.342245)
(-0.903563 0.342086 -0.257974)
(-0.783233 -0.575771 0.234592)
(-0.864315 0.359402 -0.351838)
(0.864315 -0.359402 0.351838)
(-0.71314 0.543961 -0.442196)
(-0.713141 0.54396 -0.442196)
(-0.749208 0.603132 -0.273714)
(-0.750072 0.602227 -0.273339)
(-0.963262 0.170994 -0.207094)
(0.973223 -0.221167 -0.0626339)
(0.962568 -0.170154 0.210974)
(-0.928759 0.139257 -0.343533)
(0.635307 -0.495993 0.591925)
(-0.679391 0.54817 -0.487789)
(0.666737 -0.532766 0.521173)
(-0.69119 0.538994 -0.481396)
(0.62353 -0.489052 0.609949)
(0.635216 -0.496061 0.591966)
(0.372879 -0.61581 0.694075)
(-0.434801 0.590759 -0.679671)
(0.898208 -0.336313 0.283047)
(-0.711941 -0.664354 0.22754)
(0.830344 -0.306413 0.465445)
(0.831381 -0.3073 0.463003)
(0.775547 -0.262978 0.573907)
(-0.945145 0.156105 -0.286937)
(-0.967031 -0.020327 -0.253845)
(-0.945221 0.155751 -0.286879)
(0.953575 -0.300393 -0.0214181)
(-0.912386 0.407662 -0.0369079)
(-0.490327 -0.750537 0.443029)
(0.875942 -0.340367 0.341872)
(-0.929376 0.153173 -0.335855)
(-0.8633 0.151451 -0.481431)
(-0.863233 0.15158 -0.481511)
(-0.885522 0.105665 -0.452423)
(0.497686 -0.644081 0.58092)
(0.537619 -0.649508 0.537685)
(-0.944868 -0.313746 0.0937467)
(0.497126 -0.644382 0.581065)
(0 0 -1)
(0.32803 -0.930543 -0.162747)
(0 0 1)
(0 0 -1)
(0.935826 -0.139236 0.323794)
(0.846685 -0.311773 0.431187)
(0.846457 -0.312115 0.431388)
(-0.937441 0.140517 -0.318527)
(-0.834512 0.183022 -0.519705)
(0.843708 -0.178166 0.506373)
(0.828799 -0.185951 0.527745)
(-0.813967 0.134507 -0.565124)
(-0.841763 0.0867266 -0.532836)
(-0.813826 0.134735 -0.565273)
(0.510103 -0.24295 0.825088)
(-0.257772 0.259202 -0.930789)
(-0.510103 0.24295 -0.825088)
(0.510103 -0.24295 0.825088)
(0.257772 -0.259202 0.930789)
(0.510103 -0.24295 0.825088)
(0.759713 -0.199859 0.618783)
(-0.480488 0.246657 -0.841601)
(-0.917422 0.170465 -0.359554)
(0.929114 -0.138216 0.342992)
(-0.917479 0.170317 -0.359479)
(-0.594275 0.246793 -0.765461)
(0.678185 -0.225662 0.699386)
(0.661408 -0.0895436 0.744662)
(-0.725923 0.0153155 -0.687605)
(-0.66446 0.0862652 -0.742328)
(0.956831 -0.129741 0.26008)
(0.913439 0.399398 0.078171)
(-0.816272 -0.577665 0.00191313)
(-0.956471 0.131443 -0.260551)
(-0.918567 -0.385958 -0.0852757)
(0.990196 -0.101012 -0.0964792)
(0.934817 -0.283646 -0.213687)
(-0.992613 0.0852733 0.0863055)
(0.927685 -0.128268 0.350639)
(0.905149 -0.141029 0.401019)
(0.929799 -0.126954 0.34548)
(0.54892 -0.178563 0.816579)
(-0.112395 0.0735092 -0.990941)
(-0.507534 0.16913 -0.844869)
(0.180063 0.229691 0.956462)
(-0.345041 -0.27886 -0.896205)
(-0.270285 -0.257312 -0.927759)
(0.889482 -0.132939 0.437206)
(0.894003 -0.131728 0.42826)
(0.92886 -0.120846 0.350165)
(0.865978 -0.168591 0.470807)
(0.877121 -0.164207 0.451326)
(0.782836 -0.194825 0.590941)
(-0.963573 0.10734 -0.244958)
(-0.908092 0.14047 -0.394509)
(0.878221 -0.153041 0.453107)
(-0.550675 0.0645393 -0.832221)
(-0.499025 0.0526185 -0.864989)
(-0.754201 0.114505 -0.646583)
(0.845777 -0.17725 0.503233)
(0.813027 -0.187562 0.551188)
(0.874422 -0.166781 0.455599)
(0.778135 -0.197049 0.596387)
(-0.662883 0.236513 -0.710386)
(-0.740087 0.210758 -0.638633)
(0.890583 -0.135628 0.434128)
(0.914186 -0.119445 0.387294)
(0.882612 -0.140629 0.448574)
(0.828794 -0.182941 0.528803)
(-0.873604 0.167461 -0.456917)
(0.883981 -0.144037 0.444783)
(0.884348 -0.144962 0.443751)
(-0.461393 0.245282 -0.852615)
(0.446442 -0.246648 0.860148)
(-0.811906 0.181189 -0.554959)
(-0.862997 0.163004 -0.47819)
(-0.491334 0.24256 -0.836514)
(0.462969 -0.245247 0.851771)
(0.868448 -0.163353 0.468095)
(0.800979 -0.186673 0.568846)
(-0.871056 0.163901 -0.46303)
(0.792982 -0.190265 0.578773)
(-0.558469 0.432159 -0.708062)
(0.778378 -0.264435 0.569387)
(-0.558229 0.432302 -0.708164)
(-0.666766 -0.0866174 -0.740216)
(-0.89801 0.0833192 -0.432013)
(0.861183 -0.153502 0.484563)
(-0.868878 0.148872 -0.472111)
(0.873039 -0.1463 0.465188)
(0.872904 -0.147079 0.465196)
(0.911384 -0.127799 0.391212)
(0.873359 -0.144439 0.465168)
(0.920114 -0.171208 0.352248)
(0.816201 -0.188778 0.546058)
(0 0 -1)
(0 0 -1)
(-0.538626 0.723529 -0.431726)
(-0.749242 0.55308 -0.364334)
(0.381285 -0.793845 0.473742)
(0.888262 -0.0183522 0.45897)
(0.886239 -0.0171036 0.462912)
(-0.748623 0.207554 -0.629671)
(0.475926 -0.109263 0.872672)
(0.737615 -0.210067 0.641713)
(0.883411 -0.0309458 0.467576)
(-0.7591 0.205767 -0.617598)
(0.447528 -0.156557 0.880459)
(-0.753665 0.207802 -0.623544)
(-0.809155 0.182727 -0.558461)
(-0.819863 0.177289 -0.54442)
(-0.661169 0.227079 -0.715046)
(0.779988 -0.196006 0.594307)
(0.973911 -0.226711 -0.00994055)
(-0.853802 0.158894 -0.495756)
(0.99682 -0.00477246 -0.0795441)
(-0.80148 0.186451 -0.568213)
(-0.748458 0.206418 -0.63024)
(0.99682 -0.00478474 -0.0795421)
(0.556364 -0.705251 0.439409)
(-0.575667 0.207152 -0.791009)
(0.684082 -0.222436 0.694661)
(0.753215 -0.216928 0.620975)
(0.742264 -0.209032 0.636671)
(0.753498 -0.206741 0.624098)
(-0.906947 0.136594 -0.398483)
(0.85771 -0.156952 0.489592)
(0.814941 -0.185392 0.549091)
(-0.73897 0.209889 -0.640211)
(-0.757727 0.206305 -0.619102)
(-0.865827 0.0293268 -0.499484)
(-0.848697 0.0267115 -0.528204)
(-0.739287 0.212577 -0.638957)
(-0.84737 0.0355539 -0.529811)
(-0.797444 -0.000229221 -0.603392)
(0.569969 -0.444516 0.691043)
(-0.721587 0.217575 -0.657246)
(0.396445 -0.781659 0.481498)
(-0.837229 0.0128381 -0.546702)
(-0.832607 0.170981 -0.526813)
(-0.826334 0.0106903 -0.563079)
(0.800575 -0.186872 0.56935)
(0.104298 -0.233383 0.966775)
(0.965484 0.220728 -0.138277)
(0.796754 -0.188401 0.574185)
(-0.709003 0.211886 -0.672621)
(-0.845773 0.163916 -0.50774)
(-0.834128 0.170362 -0.524603)
(0.478351 -0.246927 0.842738)
(0.781924 -0.195003 0.592089)
(0.498773 -0.238199 0.833358)
(-0.819623 0.200031 -0.536848)
(0.383668 0.496574 -0.778597)
(0.264751 0.235303 -0.935168)
(0.793988 0.201283 -0.573645)
(0.790605 0.206018 -0.576628)
(0.725485 0.625334 -0.287451)
(-0.665154 0.226083 -0.711657)
(-0.766197 0.202098 -0.609999)
(0.252356 0.177899 -0.951141)
(-0.749985 0.209086 -0.62754)
(-0.956611 0.15278 -0.248102)
(0.805348 0.186095 -0.562835)
(-0.0163777 0.01172 0.999797)
(-0.0168042 0.076235 0.996948)
(-0.0228952 0.12999 0.991251)
(-0.149475 -0.0434234 0.987812)
(-0.0244701 0.161356 0.986593)
(-0.0144501 -0.0475333 0.998765)
(-0.0143757 0.146739 0.989071)
(-0.024826 0.180223 0.983313)
(-0.0118743 -0.0838117 0.996411)
(-0.0828526 -0.0202321 0.996356)
(-0.0254218 0.191003 0.98126)
(-0.0281718 0.187973 0.98177)
(-0.0468101 0.121302 0.991511)
(-0.0157773 0.0235545 0.999598)
(-0.0873317 0.00846617 0.996143)
(-0.05363 -0.067411 0.996283)
(-0.229264 0.426785 -0.87481)
(-0.768571 0.0986322 -0.632116)
(0.165674 -0.423883 -0.890435)
(0.443509 -0.859404 0.254411)
(0.441882 0.617096 -0.651101)
(0.828339 0.506073 -0.240301)
(-0.983804 0.149108 -0.0994832)
(0.770808 0.232394 -0.593167)
(0.049187 0.334727 0.94103)
(-0.985433 0.0242013 0.168336)
(0.0328865 0.368007 0.929241)
(0.897984 0.390533 -0.202754)
(-0.898693 -0.0640598 0.433875)
(0.0403538 0.480625 0.875998)
(0.947835 -0.184601 -0.259868)
(0.933737 -0.357955 0.00185168)
(-0.974762 -0.0871359 -0.205538)
(0.0961429 0.29569 0.950434)
(0.910587 -0.412067 0.032126)
(0.905292 -0.00636251 -0.424742)
(0.0991911 0.305208 0.947106)
(0.571831 0.421757 -0.703655)
(0.81665 0.170465 -0.551384)
(0.33798 0.460569 -0.820759)
(-0.910035 -0.00176637 0.414527)
(-0.936705 0.267641 0.225727)
(0.815348 -0.565853 0.12255)
(0.422343 0.509679 -0.749569)
(0.781361 0.218477 -0.584587)
(0.705556 0.30888 -0.637796)
(-0.968277 -0.0522031 0.244364)
(0.0640752 0.307042 0.949536)
(0.0145567 0.81103 0.584824)
(0.65927 -0.225926 0.717162)
(-0.306782 0.123986 -0.943669)
(-0.35446 0.101239 -0.929575)
(0.573831 0.741571 -0.34755)
(0.651824 -0.729325 0.207872)
(0.836052 0.143455 -0.529564)
(-0.758445 0.217156 -0.614495)
(0.0946301 0.289176 0.952587)
(0.844211 0.126741 -0.520811)
(0.968682 -0.24076 -0.0607422)
(-0.644868 0.212228 -0.734237)
(-0.874041 0.410745 -0.259502)
(-0.738263 -0.659903 0.139629)
(-0.935279 0.320171 -0.150812)
(-0.907472 0.365055 -0.207919)
(-0.385706 -0.883229 0.266715)
(-0.993778 0.11128 0.00464286)
(-0.214953 -0.934323 0.284316)
(-0.828341 0.450292 -0.333299)
(-0.863403 0.417845 -0.282738)
(-0.726719 0.521879 -0.446678)
(-0.677855 -0.707934 0.198351)
(0.212562 0.78911 -0.576301)
(-0.93867 0.309719 -0.15157)
(-0.999964 -0.00353115 0.00773604)
(-0.953818 0.269706 -0.132247)
(-0.987686 -0.0276396 0.153986)
(-0.997449 -0.0249086 -0.0668898)
(-0.997484 -0.0470927 -0.0529864)
(-0.806569 -0.018528 0.590849)
(0.152934 0.406103 -0.900939)
(0.41944 0.461803 -0.781543)
(0.079468 0.673353 -0.735037)
(-0.0526274 -0.863529 0.501545)
(-0.356896 -0.784711 0.506808)
(0.0657547 0.251352 0.96566)
(-0.891331 0.411556 0.190133)
(-0.966755 -0.246288 0.0687479)
(-0.105979 -0.61827 0.778788)
(-0.0913586 -0.474292 0.875614)
(-0.0954344 -0.730519 0.676191)
(-0.115053 -0.394353 0.911728)
(-0.625372 -0.642129 0.443374)
(-0.997358 -0.0189424 0.070136)
(-0.831754 -0.449732 0.325464)
(-0.799476 -0.582348 0.147337)
(0.283944 0.727553 -0.624534)
(0.140024 0.582227 -0.800878)
(0.284287 0.881049 -0.378066)
(-0.987808 -0.151854 -0.0342973)
(-0.0311484 -0.956438 0.290268)
(-0.5418 -0.806277 0.237425)
(-0.914821 -0.397659 0.0704949)
(0 0 -1)
(0.825533 -0.0186582 0.564045)
(0.252279 0.333127 -0.908505)
(0.864349 0.227799 -0.448339)
(0.34885 0.306401 -0.885676)
(0.897668 0.189466 -0.397862)
(0.995771 -0.01608 -0.0904513)
(0.663138 0.163535 -0.730414)
(0.93275 0.0242112 -0.35971)
(0.465724 0.177252 -0.866996)
(0.536319 0.153123 0.83001)
(-0.981935 -0.0195844 0.188202)
(-0.681512 -0.181046 0.709058)
(0.834662 0.2578 -0.486701)
(0.284844 0.320883 -0.903271)
(-0.874286 0.216602 -0.434405)
(0.871531 -0.189392 0.452287)
(0.839244 -0.217494 0.498364)
(-0.846248 0.122531 -0.518508)
(0.881251 -0.152359 0.447418)
(-0.921642 0.142661 -0.360866)
(-0.246061 0.297484 -0.922473)
(0.852375 -0.159846 0.497902)
(-0.775438 0.198274 -0.599487)
(0.653492 -0.226657 0.722201)
(-0.943784 0.0421989 -0.327857)
(0.840702 -0.0238267 0.540973)
(0.882193 -0.0489122 0.468341)
(-0.932867 0.0464868 -0.357209)
(-0.716526 0.0267611 -0.697046)
(0.961994 -0.164342 0.218082)
(-0.539362 0.723486 -0.430879)
(0.944824 -0.130795 0.300334)
(-0.911292 0.132214 -0.389957)
(0.632359 0.0782127 0.770717)
(0.936947 -0.0961007 0.336)
(-0.320334 0.318223 0.892256)
(0.689315 -0.221246 0.689851)
(-0.354924 0.240081 -0.903543)
(-0.117697 0.29169 0.949244)
(-0.0625399 -0.373649 -0.925459)
(-0.76398 0.205386 -0.611679)
(0.431342 0.229991 -0.872381)
(0.915039 -0.131105 0.381465)
(-0.7997 0.187457 -0.570386)
(0.924097 -0.106296 0.367078)
(0.415385 -0.245244 0.875963)
(-0.640335 0.223102 -0.734981)
(-0.747398 0.210016 -0.630309)
(-0.990205 0.059584 -0.126266)
(0.837582 -0.174611 0.517656)
(0.955716 -0.114497 0.271105)
(-0.958456 0.113698 -0.261599)
(-0.448961 -0.0145207 -0.893434)
(-0.874656 0.0278086 -0.483945)
(-0.149327 -0.0402513 -0.987968)
(0.966602 -0.0354173 0.253823)
(-0.504589 -0.042593 -0.862308)
(-0.830126 0.0282321 -0.556861)
(-0.839877 -0.541545 0.036549)
(-0.964782 0.17823 -0.193466)
(-0.519718 0.684266 -0.511541)
(-0.0483166 0.130718 -0.990242)
(0.298374 -0.131528 0.945343)
(-0.687966 0.201587 -0.697184)
(0.868705 -0.149856 0.472117)
(-0.050404 0.0734667 -0.996023)
(0.0484201 -0.0701738 0.996359)
(0.484207 0.0919994 -0.870103)
(0.996459 -0.0821569 -0.017854)
(-0.217887 0.110212 -0.969731)
(-0.912145 0.129658 -0.388819)
(0.888216 -0.150987 0.433906)
(-0.931071 0.142361 -0.335916)
(0.0494398 0.0615466 -0.996879)
(0.261183 -0.0948573 0.960617)
(-0.147066 0.109776 -0.983016)
(0.327782 -0.108432 0.93851)
(-0.776209 0.123354 -0.618291)
(0.51058 -0.111079 0.852625)
(-0.852294 0.480145 0.207498)
(-0.890314 0.34817 0.293459)
(-0.546756 0.329263 0.769834)
(-0.888831 0.102591 -0.446603)
(0.660883 0.749996 -0.0272018)
(-0.0988281 0.868735 -0.485317)
(-0.255513 0.873838 -0.413666)
(0.187671 0.183625 -0.964915)
(-0.0979671 0.967024 -0.23509)
(-0.997002 -0.0249539 0.073241)
(-0.809742 -0.158725 0.564911)
(-0.99894 0.0269985 0.0372821)
(-0.540708 0.240618 -0.806064)
(-0.0853198 -0.0834703 0.992851)
(-0.634935 -0.00809766 -0.772523)
(-0.50083 0.309071 0.808483)
(0.842 -0.202392 0.500073)
(-0.901022 0.00546725 0.433738)
(-0.896517 -0.0216618 -0.442479)
(-0.834091 0.19088 -0.517549)
(-0.983272 0.113487 0.142468)
(-0.509847 -0.0623903 -0.858)
(-0.941883 0.129892 -0.309814)
(-0.56495 0.531933 0.630777)
(-0.779502 -0.0150988 0.626217)
(-0.926975 0.319392 0.196738)
(-0.737163 -0.0153738 0.67554)
(-0.94436 0.31427 0.0970449)
(0.246743 -0.00514919 0.969067)
(-0.479019 0.0399292 -0.876896)
(-0.870632 0.210921 -0.444423)
(-0.92434 0.315054 0.21526)
(-0.821521 0.188751 -0.53803)
(0.866402 -0.0134843 0.499165)
(0.635205 -0.227618 0.738041)
(-0.687416 0.221575 -0.691639)
(0.627602 -0.210727 0.749473)
(0.855789 0.0301907 -0.516444)
(-0.86723 0.072865 0.492548)
(0.913181 -0.024117 0.40684)
(-0.972443 0.0490197 -0.227928)
(0.786007 -0.0286411 0.617554)
(0.888896 -0.0486838 0.455515)
(-0.876997 0.340321 -0.339202)
(-0.652805 0.218087 -0.725454)
(0.946426 -0.15674 0.282331)
(-0.687963 0.209354 -0.694894)
(0.744966 -0.666978 0.0128866)
(0 0 -1)