/*--------------------------------*- C++ -*----------------------------------*\
| =========                 |                                                 |
| \\      /  F ield         | OpenFOAM: The Open Source CFD Toolbox           |
|  \\    /   O peration     | Version:  2.2.x                                 |
|   \\  /    A nd           | Web:      www.OpenFOAM.org                      |
|    \\/     M anipulation  |                                                 |
\*---------------------------------------------------------------------------*/
FoamFile
{
    version     2.0;
    format      ascii;
    class       extendedFeatureEdgeMesh;
    location    "constant/extendedFeatureEdgeMesh";
    object      forearm_left_back.extendedFeatureEdgeMesh;
}
// * * * * * * * * * * * * * * * * * * * * * * * * * * * * * * * * * * * * * //

// points

35
(
(2.00361 3.58855 1.09729)
(2.00678 3.5528 0.866322)
(2.05332 3.5454 0.867934)
(2.07266 3.58767 1.09734)
(1.93178 3.55436 0.0916016)
(1.93161 3.55431 0.0916016)
(1.93165 3.54566 0.0916016)
(1.93182 3.54692 0.0916016)
(2.00428 3.60607 1.09619)
(2.0049 3.57168 0.981986)
(2.02234 3.57567 0.861334)
(2.02581 3.57672 0.861106)
(2.02257 3.63423 1.09442)
(2.01614 3.62908 1.09475)
(2.01566 3.57144 0.862257)
(2.01913 3.57403 0.861692)
(2.01112 3.56604 0.863435)
(2.00816 3.55967 0.864823)
(2.03019 3.57719 0.861004)
(2.02997 3.63756 1.09421)
(2.03819 3.63874 1.09414)
(2.01084 3.62243 1.09516)
(2.00683 3.61459 1.09565)
(2.06175 3.62746 1.09485)
(2.05682 3.63213 1.09455)
(2.04496 3.63794 1.09419)
(2.03468 3.5767 0.86111)
(2.03885 3.5753 0.861415)
(2.0512 3.63568 1.09433)
(2.04263 3.57311 0.861894)
(2.04596 3.57021 0.862526)
(2.07283 3.60162 1.09647)
(2.05347 3.55405 0.866049)
(2.06918 3.61549 1.0956)
(2.05102 3.56274 0.864153)
)

// edges

37
(
(0 3)
(8 0)
(2 1)
(0 9)
(10 11)
(12 13)
(14 15)
(16 14)
(15 10)
(17 16)
(11 18)
(19 12)
(20 19)
(13 21)
(21 22)
(9 1)
(1 17)
(22 8)
(23 24)
(25 20)
(26 27)
(28 25)
(29 30)
(27 29)
(24 28)
(18 26)
(3 31)
(2 3)
(32 2)
(31 33)
(34 32)
(33 23)
(30 34)
(4 5)
(5 6)
(6 7)
(7 4)
)

// concaveStart mixedStart nonFeatureStart
1 1 4
// internalStart flatStart openStart multipleStart
4 33 33 37
// normals

60
(
(0 -0 1)
(0 0 1)
(5.94088e-07 0.0625938 0.998039)
(-0.0126315 -0.98318 0.182202)
(0.999183 -0.0368748 0.0165386)
(6.97849e-06 -0.213008 -0.97705)
(-0.160209 -0.974595 0.156518)
(-0.19742 -0.970309 0.139733)
(0.29536 -0.925699 0.236312)
(1.36891e-05 -0.213017 -0.977048)
(0.619829 -0.761906 0.187913)
(1.35562e-05 0.0626031 0.998039)
(0.607524 -0.771251 0.189963)
(-9.66096e-06 -0.213042 -0.977043)
(0.772873 -0.616352 0.150922)
(3.67201e-06 -0.213023 -0.977047)
(0.463111 -0.859696 0.215525)
(-2.28479e-07 -0.213031 -0.977045)
(0.910085 -0.401957 0.100878)
(-1.12874e-06 -0.213033 -0.977045)
(0.108786 -0.962322 0.249203)
(-3.05002e-05 -0.213054 -0.97704)
(0.40476 -0.886957 0.222432)
(4.71752e-05 0.0626391 0.998036)
(0.139738 -0.958562 0.248259)
(8.7683e-06 0.0626064 0.998038)
(0.777902 -0.610294 0.1497)
(-1.00138e-05 0.0625711 0.998041)
(0.887291 -0.447885 0.11006)
(-2.51597e-05 0.0625442 0.998042)
(0.996497 -0.0784231 0.0290359)
(0.981393 -0.184424 0.0534392)
(0.956753 -0.281713 0.0725369)
(1.09786e-05 0.0626323 0.998037)
(-0.678231 -0.701478 0.218932)
(-5.73422e-05 0.0625719 0.99804)
(-0.114233 -0.959589 0.257175)
(-5.26951e-05 0.0625651 0.998041)
(-0.323799 -0.911456 0.253776)
(2.70796e-05 -0.213017 -0.977048)
(-0.335014 -0.907601 0.253033)
(-9.08314e-06 0.062589 0.998039)
(-0.663275 -0.71476 0.221776)
(-6.15242e-06 -0.21303 -0.977046)
(-0.510283 -0.825532 0.241057)
(2.69489e-05 -0.213018 -0.977048)
(-0.52565 -0.81639 0.239162)
(-9.14454e-06 0.062589 0.998039)
(-0.110685 -0.959991 0.257229)
(3.00711e-06 -0.213031 -0.977045)
(-0.996578 0.016934 0.0808999)
(0.000100635 0.0626182 0.998038)
(-0.99647 0.0343483 0.0766073)
(-1.71789e-05 -0.213034 -0.977045)
(-0.96076 -0.244415 0.131155)
(-0.961174 -0.242974 0.130798)
(-0.840383 -0.510425 0.182269)
(0.000122099 0.0626209 0.998037)
(-0.832061 -0.5228 0.185353)
(-2.64089e-05 -0.213035 -0.977044)
)

// edgeNormals

37
(
2(2 3)
2(2 4)
2(5 6)
2(7 4)
2(8 9)
2(10 11)
2(12 13)
2(14 15)
2(16 17)
2(18 19)
2(20 21)
2(22 23)
2(24 25)
2(26 27)
2(28 29)
2(30 6)
2(31 5)
2(32 33)
2(34 35)
2(36 37)
2(38 39)
2(40 41)
2(42 43)
2(44 45)
2(46 47)
2(48 49)
2(50 51)
2(50 3)
2(52 53)
2(54 51)
2(55 53)
2(56 57)
2(58 59)
1(0)
1(0)
1(1)
1(1)
)

// featurePointNormals

4
(
4(2 3 4 7)
4(5 6 30 31)
5(5 6 50 3 52)
3(2 3 50)
)

// featurePointEdges

4
(
3(0 1 3)
3(15 16 2)
3(27 28 2)
3(26 27 0)
)

// regionEdges
4(33 34 35 36)


// ************************************************************************* //
