/*--------------------------------*- C++ -*----------------------------------*\
| =========                 |                                                 |
| \\      /  F ield         | OpenFOAM: The Open Source CFD Toolbox           |
|  \\    /   O peration     | Version:  2.2.x                                 |
|   \\  /    A nd           | Web:      www.OpenFOAM.org                      |
|    \\/     M anipulation  |                                                 |
\*---------------------------------------------------------------------------*/
FoamFile
{
    version     2.0;
    format      ascii;
    class       extendedFeatureEdgeMesh;
    location    "constant/extendedFeatureEdgeMesh";
    object      forearm_right_front.extendedFeatureEdgeMesh;
}
// * * * * * * * * * * * * * * * * * * * * * * * * * * * * * * * * * * * * * //

// points

38
(
(1.57763 3.52499 0.872384)
(1.59678 3.59734 1.09674)
(1.59255 3.55709 0.865386)
(1.52733 3.58778 1.09733)
(1.54668 3.5454 0.867934)
(1.59308 3.54637 0.867724)
(1.59238 3.55705 0.865396)
(1.59199 3.54141 0.868804)
(1.58991 3.5364 0.869898)
(1.5782 3.52524 0.872331)
(1.5868 3.53179 0.870903)
(1.58285 3.528 0.871729)
(1.58351 3.52852 0.871615)
(1.58822 3.53365 0.870498)
(1.59146 3.53986 0.869144)
(1.93178 3.55436 0.0916016)
(1.93161 3.55431 0.0916016)
(1.93165 3.54566 0.0916016)
(1.93182 3.54692 0.0916016)
(1.54982 3.55453 1.09942)
(1.55744 3.55224 1.09956)
(1.56566 3.55217 1.09957)
(1.57346 3.55439 1.09943)
(1.59311 3.54658 0.867679)
(1.55802 3.52708 0.87193)
(1.55456 3.52988 0.871319)
(1.54935 3.5371 0.869745)
(1.54392 3.55799 1.0992)
(1.57299 3.5237 0.872666)
(1.56743 3.52359 0.87269)
(1.58048 3.55863 1.09916)
(1.58649 3.56456 1.09879)
(1.59126 3.57187 1.09833)
(1.56199 3.52498 0.872387)
(1.59455 3.57997 1.09783)
(1.53126 3.57414 1.09819)
(1.59565 3.58854 1.09729)
(1.53884 3.56252 1.09892)
)

// edges

42
(
(1 3)
(4 6)
(19 20)
(20 21)
(21 22)
(2 23)
(24 25)
(25 26)
(26 4)
(4 3)
(27 19)
(0 28)
(28 29)
(22 30)
(30 31)
(31 32)
(29 33)
(23 5)
(32 34)
(3 35)
(34 36)
(36 1)
(37 27)
(35 37)
(33 24)
(7 8)
(9 0)
(8 10)
(10 11)
(11 9)
(1 2)
(5 7)
(12 0)
(13 12)
(14 13)
(5 14)
(6 2)
(1 6)
(15 16)
(16 17)
(17 18)
(18 15)
)

// concaveStart mixedStart nonFeatureStart
0 0 7
// internalStart flatStart openStart multipleStart
2 25 25 42
// normals

56
(
(-0.926088 0.373631 -0.0525491)
(-0.396968 0.909277 -0.125027)
(-0.834488 0.545231 -0.0797084)
(-0.699687 0.707038 -0.102641)
(-0.518765 0.846536 -0.119416)
(-0.998544 -0.0470367 0.0264063)
(-0.97741 0.209935 -0.0244171)
(-1.93728e-06 -0.213028 -0.977046)
(2.60171e-05 -0.213036 -0.977044)
(-1.39883e-05 -0.21303 -0.977046)
(1.28685e-05 -0.213031 -0.977045)
(-0.000415175 -0.213058 -0.977039)
(-0.135877 0.976464 -0.167495)
(0 -0 1)
(0 0 1)
(-9.89158e-07 0.0626427 0.998036)
(-1.54148e-06 -0.213023 -0.977047)
(-0.252293 0.947529 -0.196307)
(0.28809 0.951449 -0.108394)
(5.75097e-05 0.0625106 0.998044)
(0.00888815 0.99213 -0.124893)
(-5.21118e-05 0.0626256 0.998037)
(-0.273971 0.953122 -0.128443)
(7.29514e-05 0.0625228 0.998044)
(-0.000126702 -0.213045 -0.977042)
(0.634994 0.769648 -0.0665226)
(-3.06755e-06 -0.213026 -0.977047)
(0.813763 0.580439 -0.0296637)
(5.06395e-06 -0.213037 -0.977044)
(0.950262 0.310618 0.022769)
(0.505194 0.858767 -0.0854363)
(-3.39955e-05 0.0626335 0.998037)
(-0.273686 0.953203 -0.128455)
(1.46096e-06 -0.21303 -0.977046)
(-0.0197651 0.991948 -0.125093)
(1.13906e-05 -0.213035 -0.977045)
(-0.516426 0.847932 -0.119645)
(-0.000117986 0.0626464 0.998036)
(-0.702042 0.704759 -0.102236)
(6.21444e-05 0.0625554 0.998041)
(-0.83664 0.542012 -0.0790989)
(-0.000172828 0.0626449 0.998036)
(0.252156 0.961379 -0.110306)
(-2.25065e-05 -0.213011 -0.97705)
(-0.992466 0.121984 -0.0114773)
(-0.926416 0.372838 -0.0523909)
(-0.00014136 0.0626366 0.998036)
(0.960029 0.278184 0.0309367)
(-1.96492e-07 0.0625716 0.99804)
(-0.925015 0.0953021 -0.367784)
(0.667016 0.742656 -0.0596036)
(9.92892e-06 0.0625594 0.998041)
(0.837843 0.545531 -0.02038)
(-4.49102e-06 0.0625907 0.998039)
(0.472591 0.876798 -0.0887869)
(1.07139e-05 -0.213041 -0.977043)
)

// edgeNormals

42
(
2(15 12)
2(16 17)
2(18 19)
2(20 21)
2(22 23)
2(5 24)
2(25 26)
2(27 28)
2(29 16)
2(29 17)
2(30 31)
2(32 33)
2(34 35)
2(36 37)
2(38 39)
2(40 41)
2(42 43)
2(44 24)
2(45 46)
2(47 48)
2(49 46)
2(49 15)
2(50 51)
2(52 53)
2(54 55)
1(0)
1(1)
1(2)
1(3)
1(4)
1(5)
1(6)
1(7)
1(8)
1(9)
1(10)
1(11)
1(12)
1(13)
1(13)
1(14)
1(14)
)

// featurePointNormals

7
(
3(32 33 1)
4(15 12 49 5)
2(5 24)
5(15 12 29 17 47)
3(16 17 29)
3(44 24 6)
3(16 17 12)
)

// featurePointEdges

7
(
3(11 26 32)
4(21 0 30 37)
3(5 30 36)
3(9 19 0)
3(8 9 1)
3(17 31 35)
3(1 36 37)
)

// regionEdges

17
(
25
26
27
28
29
30
31
32
33
34
35
36
37
38
39
40
41
)



// ************************************************************************* //
