/*--------------------------------*- C++ -*----------------------------------*\
| =========                 |                                                 |
| \\      /  F ield         | OpenFOAM: The Open Source CFD Toolbox           |
|  \\    /   O peration     | Version:  2.2.x                                 |
|   \\  /    A nd           | Web:      www.OpenFOAM.org                      |
|    \\/     M anipulation  |                                                 |
\*---------------------------------------------------------------------------*/
FoamFile
{
    version     2.0;
    format      ascii;
    class       extendedFeatureEdgeMesh;
    location    "constant/extendedFeatureEdgeMesh";
    object      forearm_right_back.extendedFeatureEdgeMesh;
}
// * * * * * * * * * * * * * * * * * * * * * * * * * * * * * * * * * * * * * //

// points

32
(
(1.59678 3.59734 1.09674)
(1.54668 3.5454 0.867934)
(1.59238 3.55705 0.865396)
(1.52733 3.58778 1.09733)
(1.58433 3.57143 0.86226)
(1.58386 3.62908 1.09475)
(1.59255 3.55709 0.865386)
(1.58878 3.56615 0.86341)
(1.59181 3.55976 0.864805)
(1.58447 3.5713 0.862289)
(1.58806 3.56722 0.863178)
(1.5908 3.5624 0.864229)
(1.56181 3.63874 1.09414)
(1.57003 3.63756 1.09421)
(1.54653 3.55405 0.866049)
(1.54898 3.56274 0.864153)
(1.55404 3.57021 0.862526)
(1.57523 3.57647 0.86116)
(1.56981 3.57719 0.861004)
(1.55737 3.57311 0.861894)
(1.57743 3.63423 1.09442)
(1.58915 3.62243 1.09516)
(1.56115 3.5753 0.861415)
(1.56532 3.5767 0.86111)
(1.58016 3.57445 0.861602)
(1.54892 3.63574 1.09433)
(1.55511 3.63796 1.09419)
(1.59317 3.61459 1.09565)
(1.53096 3.61583 1.09558)
(1.52723 3.602 1.09644)
(1.53842 3.62766 1.09483)
(1.54333 3.63225 1.09455)
)

// edges

37
(
(12 13)
(14 1)
(15 14)
(16 15)
(17 18)
(2 1)
(1 3)
(19 16)
(20 5)
(5 21)
(13 20)
(22 19)
(23 22)
(24 17)
(25 26)
(18 23)
(0 6)
(3 0)
(27 0)
(21 27)
(26 12)
(4 24)
(28 29)
(30 28)
(29 3)
(31 30)
(31 25)
(3 2)
(7 4)
(6 3)
(2 8)
(8 7)
(5 9)
(10 11)
(4 5)
(9 10)
(11 6)
)

// concaveStart mixedStart nonFeatureStart
0 2 7
// internalStart flatStart openStart multipleStart
0 27 27 37
// normals

52
(
(-0.252293 0.947529 -0.196307)
(7.33973e-05 0.213062 0.977039)
(-0.135879 0.97648 -0.167404)
(9.54938e-05 0.21307 0.977037)
(-0.777968 -0.610225 0.149637)
(-0.874327 -0.471201 0.11628)
(-0.594866 -0.780472 0.192348)
(-0.758467 -0.633185 0.154286)
(-0.951327 -0.29839 0.0770692)
(1.28166e-05 -0.0625783 -0.99804)
(-0.139741 -0.958593 0.248137)
(-1.71718e-05 0.213034 0.977045)
(0.996379 0.0346797 0.07763)
(0.961149 -0.242917 0.131088)
(-2.53491e-06 0.21302 0.977048)
(0.832102 -0.522945 0.184757)
(-2.41597e-05 0.21301 0.97705)
(-0.134262 -0.959249 0.248628)
(-8.58397e-07 0.213032 0.977045)
(-1.06047e-06 0.213024 0.977047)
(0.663306 -0.714856 0.221373)
(6.56502e-05 -0.0625383 -0.998043)
(-0.619795 -0.76182 0.188373)
(-4.71912e-06 -0.0625669 -0.998041)
(0.00010095 -0.0625199 -0.998044)
(-0.404682 -0.886751 0.223395)
(9.52492e-06 0.213046 0.977042)
(0.510378 -0.825582 0.240685)
(1.42856e-05 0.213054 0.97704)
(0.323737 -0.911544 0.253539)
(-1.15616e-06 0.213029 0.977046)
(-0.387907 -0.893817 0.224987)
(2.36714e-06 -0.0625786 -0.99804)
(0.331363 -0.908841 0.253391)
(2.21817e-06 0.213038 0.977044)
(0.110686 -0.960007 0.257167)
(-0.978166 -0.201 0.0528202)
(-8.48011e-06 -0.0625742 -0.99804)
(-0.000163585 -0.0626149 -0.998038)
(-0.887236 -0.447972 0.11015)
(-4.43666e-05 -0.0626264 -0.998037)
(0.112962 -0.959723 0.257236)
(-5.52233e-05 0.212993 0.977054)
(0.95891 -0.251005 0.132245)
(8.30817e-05 -0.062586 -0.99804)
(0.836624 -0.516005 0.183846)
(-1.97028e-05 -0.0626139 -0.998038)
(0.996645 0.0127054 0.0808568)
(0.673306 -0.705851 0.220077)
(-2.86671e-06 -0.0625817 -0.99804)
(-1.51266e-05 -0.0626004 -0.998039)
(0.521002 -0.819142 0.239924)
)

// edgeNormals

37
(
2(9 10)
2(11 12)
2(11 13)
2(14 15)
2(16 17)
2(0 18)
2(0 12)
2(19 20)
2(21 22)
2(23 4)
2(24 25)
2(26 27)
2(28 29)
2(30 31)
2(32 33)
2(34 35)
2(2 36)
2(2 37)
2(38 36)
2(38 39)
2(40 41)
2(42 6)
2(43 44)
2(45 46)
2(47 44)
2(48 49)
2(50 51)
1(0)
1(1)
1(2)
1(3)
1(3)
1(4)
1(5)
1(6)
1(7)
1(8)
)

// featurePointNormals

7
(
3(2 36 37)
3(11 12 0)
2(0 18)
5(0 12 2 37 47)
2(42 6)
4(21 22 4 6)
3(2 36 8)
)

// featurePointEdges

7
(
3(16 17 18)
3(1 5 6)
3(5 27 30)
5(6 17 24 27 29)
3(21 28 34)
4(8 9 32 34)
3(16 29 36)
)

// regionEdges
10(27 28 29 30 31 32 33 34 35 36)


// ************************************************************************* //
