/*--------------------------------*- C++ -*----------------------------------*\
| =========                 |                                                 |
| \\      /  F ield         | OpenFOAM: The Open Source CFD Toolbox           |
|  \\    /   O peration     | Version:  2.2.x                                 |
|   \\  /    A nd           | Web:      www.OpenFOAM.org                      |
|    \\/     M anipulation  |                                                 |
\*---------------------------------------------------------------------------*/
FoamFile
{
    version     2.0;
    format      ascii;
    class       extendedFeatureEdgeMesh;
    location    "constant/extendedFeatureEdgeMesh";
    object      forearm_left_front.extendedFeatureEdgeMesh;
}
// * * * * * * * * * * * * * * * * * * * * * * * * * * * * * * * * * * * * * //

// points

32
(
(2.03434 3.55217 1.09957)
(2.04256 3.55224 1.09956)
(2.05018 3.55453 1.09942)
(2.00678 3.5528 0.866322)
(2.02654 3.55439 1.09943)
(2.01952 3.55863 1.09916)
(2.00873 3.57187 1.09833)
(2.01351 3.56456 1.09879)
(2.00361 3.58855 1.09729)
(2.00545 3.57997 1.09783)
(2.05612 3.55802 1.0992)
(2.07266 3.58767 1.09734)
(2.06122 3.5626 1.09891)
(2.05332 3.5454 0.867934)
(2.06879 3.57426 1.09818)
(2.02997 3.52345 0.87272)
(2.02624 3.52383 0.872638)
(2.03403 3.52382 0.87264)
(2.03801 3.52498 0.872387)
(2.00699 3.54589 0.867828)
(2.02237 3.52498 0.872387)
(2.01664 3.52835 0.871652)
(2.01204 3.53325 0.870585)
(2.00875 3.53927 0.869271)
(2.04198 3.52708 0.87193)
(2.05065 3.5371 0.869745)
(2.04544 3.52988 0.871319)
(1.93178 3.55436 0.0916016)
(1.93161 3.55431 0.0916016)
(1.93165 3.54566 0.0916016)
(1.93182 3.54692 0.0916016)
(2.0049 3.57168 0.981986)
)

// edges

44
(
(3 31)
(31 8)
(11 13)
(15 16)
(17 15)
(18 17)
(19 3)
(16 20)
(20 21)
(21 22)
(23 19)
(22 23)
(24 18)
(25 26)
(26 24)
(13 25)
(13 3)
(27 28)
(28 29)
(29 30)
(30 27)
(1 2)
(0 1)
(4 0)
(5 4)
(6 7)
(7 5)
(8 9)
(9 6)
(2 10)
(14 11)
(10 12)
(12 14)
(8 11)
(9 11)
(6 11)
(7 11)
(5 11)
(4 11)
(0 11)
(1 11)
(2 11)
(10 11)
(12 11)
)

// concaveStart mixedStart nonFeatureStart
0 0 14
// internalStart flatStart openStart multipleStart
0 3 3 21
// normals

53
(
(-0.288086 0.95145 -0.108394)
(-0.000100209 0.0626521 0.998035)
(0.000100209 -0.0626521 -0.998035)
(-0.00888789 0.992066 -0.125407)
(5.3032e-05 0.0625224 0.998044)
(-5.3032e-05 -0.0625224 -0.998044)
(0.27396 0.953078 -0.128796)
(-4.34059e-05 0.0626261 0.998037)
(4.34059e-05 -0.0626261 -0.998037)
(0.516386 0.848002 -0.119323)
(3.77487e-05 0.062514 0.998044)
(-3.77487e-05 -0.062514 -0.998044)
(0.836559 0.54204 -0.0797666)
(1.29613e-05 0.0625407 0.998042)
(-1.29613e-05 -0.0625407 -0.998042)
(0.702088 0.704652 -0.102659)
(-1.24567e-05 0.0626055 0.998038)
(1.24567e-05 -0.0626055 -0.998038)
(0.97792 0.207576 -0.024195)
(6.88671e-07 0.0626012 0.998039)
(-6.88671e-07 -0.0626012 -0.998039)
(0.926438 0.372701 -0.0529736)
(3.05354e-06 0.0625807 0.99804)
(-3.05354e-06 -0.0625807 -0.99804)
(-0.506423 0.858055 -0.0853059)
(7.2586e-05 0.0625353 0.998043)
(-7.2586e-05 -0.0625353 -0.998043)
(-0.959895 0.278649 0.0309281)
(4.66238e-05 0.0625604 0.998041)
(-4.66238e-05 -0.0625604 -0.998041)
(-0.668802 0.741074 -0.0592746)
(-5.84376e-05 0.0626081 0.998038)
(5.84376e-05 -0.0626081 -0.998038)
(-0.839058 0.543674 -0.0199754)
(0.0126315 0.98318 -0.182202)
(0.102603 0.986599 -0.126865)
(-0.0918669 0.988472 -0.120347)
(-0.285293 0.952274 -0.108549)
(0.999416 0.0323557 0.010996)
(0.290526 0.948245 -0.128166)
(0.514566 0.849082 -0.119507)
(0.735874 0.670178 -0.0966983)
(0.967595 0.250642 -0.0306452)
(0.881608 0.467284 -0.0664353)
(-0.472591 0.876798 -0.0887867)
(-0.813765 0.580431 -0.0297685)
(-0.635012 0.769625 -0.066607)
(-0.950222 0.310735 0.0228631)
(0.160209 0.974595 -0.156518)
(0 -0 1)
(0 0 1)
(0.995977 0.0895864 -0.00199569)
(0.19742 0.970309 -0.139733)
)

// edgeNormals

44
(
2(38 48)
2(51 52)
2(47 34)
1(35)
1(36)
1(37)
1(38)
1(39)
1(40)
1(41)
1(42)
1(43)
1(44)
1(45)
1(46)
1(47)
1(48)
1(49)
1(49)
1(50)
1(50)
3(0 1 2)
3(3 4 5)
3(6 7 8)
3(9 10 11)
3(12 13 14)
3(15 16 17)
3(18 19 20)
3(21 22 23)
3(24 25 26)
3(27 28 29)
3(30 31 32)
3(33 28 29)
3(34 19 20)
4(19 22 20 23)
4(22 13 23 14)
4(13 16 14 17)
4(16 10 17 11)
4(10 7 11 8)
4(7 4 8 5)
4(4 1 5 2)
4(1 25 2 26)
4(25 31 26 32)
4(31 28 32 29)
)

// featurePointNormals

14
(
4(3 4 5 6)
4(0 1 2 3)
4(0 1 2 24)
2(38 48)
4(6 7 8 9)
4(9 10 11 15)
4(12 13 14 21)
4(12 13 14 15)
6(51 52 18 19 20 34)
4(18 19 20 21)
4(24 25 26 30)
5(47 34 27 28 29)
4(30 31 32 33)
3(47 34 48)
)

// featurePointEdges

14
(
3(22 23 39)
3(21 22 40)
3(21 29 41)
3(0 6 16)
3(23 24 38)
3(24 26 37)
3(25 28 35)
3(25 26 36)
3(1 27 33)
3(27 28 34)
3(29 31 42)

13
(
30
2
33
34
35
36
37
38
39
40
41
42
43
)

3(31 32 43)
3(2 15 16)
)

// regionEdges

41
(
21
22
23
24
25
26
27
28
29
30
31
32
33
34
35
36
37
38
39
40
41
42
43
3
4
5
6
7
8
9
10
11
12
13
14
15
16
17
18
19
20
)



// ************************************************************************* //
