/*--------------------------------*- C++ -*----------------------------------*\
| =========                 |                                                 |
| \\      /  F ield         | OpenFOAM: The Open Source CFD Toolbox           |
|  \\    /   O peration     | Version:  2.2.x                                 |
|   \\  /    A nd           | Web:      www.OpenFOAM.org                      |
|    \\/     M anipulation  |                                                 |
\*---------------------------------------------------------------------------*/
FoamFile
{
    version     2.0;
    format      ascii;
    class       extendedFeatureEdgeMesh;
    location    "constant/extendedFeatureEdgeMesh";
    object      hand_left.extendedFeatureEdgeMesh;
}
// * * * * * * * * * * * * * * * * * * * * * * * * * * * * * * * * * * * * * //

// points

94
(
(2.02997 3.52345 0.87272)
(2.03403 3.52382 0.87264)
(2.04419 3.49813 0.771656)
(2.01276 3.47739 0.682435)
(2.01494 3.47419 0.678053)
(2.04198 3.52708 0.87193)
(2.04544 3.52988 0.871319)
(2.05065 3.5371 0.869745)
(2.02042 3.55051 0.729097)
(2.01566 3.57144 0.862257)
(2.0055 3.53416 0.690616)
(2.01703 3.5436 0.707688)
(2.02581 3.57672 0.861106)
(2.02761 3.55934 0.792571)
(2.02868 3.55326 0.72282)
(2.03019 3.57719 0.861004)
(2.01066 3.49561 0.660842)
(2.00592 3.53567 0.686697)
(2.01647 3.53703 0.704114)
(2.01644 3.52983 0.701314)
(2.01823 3.55315 0.75172)
(2.01628 3.55393 0.796852)
(2.01979 3.56093 0.830109)
(2.02966 3.5569 0.745711)
(2.02888 3.56461 0.827645)
(2.01524 3.55267 0.774293)
(2.02841 3.56206 0.816043)
(2.00871 3.50446 0.661911)
(2.00703 3.51307 0.665425)
(2.00592 3.52114 0.670635)
(2.00549 3.52892 0.677797)
(2.02798 3.55831 0.769137)
(2.00561 3.52507 0.673935)
(2.0064 3.51715 0.667813)
(2.00968 3.50004 0.661004)
(2.00781 3.50884 0.663449)
(2.01934 3.56409 0.841028)
(2.00571 3.53489 0.688714)
(2.01934 3.55815 0.819072)
(1.93178 3.55436 0.0916016)
(1.93161 3.55431 0.0916016)
(1.93165 3.54566 0.0916016)
(1.93182 3.54692 0.0916016)
(2.02658 3.55808 0.769907)
(2.02698 3.56215 0.816653)
(2.0239 3.56729 0.839825)
(2.03039 3.55591 0.766801)
(2.0301 3.54591 0.716353)
(2.03665 3.50192 0.77353)
(2.03814 3.47888 0.724251)
(2.02858 3.47392 0.700456)
(2.00787 3.50694 0.677982)
(2.00571 3.52129 0.68253)
(2.02306 3.48406 0.704173)
(2.01382 3.47584 0.680308)
(2.02624 3.52383 0.872638)
(2.02885 3.49158 0.727274)
(2.01112 3.56604 0.863435)
(2.00816 3.55967 0.864823)
(2.01086 3.49196 0.677721)
(2.03801 3.52498 0.872387)
(2.02237 3.52498 0.872387)
(2.01204 3.53325 0.870585)
(2.01664 3.52835 0.871652)
(2.00875 3.53927 0.869271)
(2.01227 3.53908 0.698397)
(2.0197 3.54752 0.718118)
(2.00678 3.5528 0.866322)
(2.01352 3.53496 0.770877)
(2.01196 3.5421 0.819189)
(2.00699 3.54589 0.867828)
(2.01244 3.54125 0.771687)
(2.01297 3.54783 0.818903)
(2.01411 3.5411 0.693447)
(2.02076 3.54595 0.701946)
(2.02234 3.57567 0.861334)
(2.01913 3.57403 0.861692)
(2.02568 3.56195 0.81693)
(2.02569 3.55006 0.711864)
(2.01165 3.49116 0.661526)
(2.01258 3.48677 0.663136)
(2.03468 3.5767 0.86111)
(2.0141 3.47919 0.668941)
(2.01462 3.4763 0.673064)
(2.01341 3.48273 0.665626)
(2.03277 3.55312 0.765038)
(2.04598 3.50055 0.768797)
(2.04793 3.50757 0.764066)
(2.03885 3.5753 0.861415)
(2.05347 3.55405 0.866049)
(2.05102 3.56274 0.864153)
(2.05332 3.5454 0.867934)
(2.04263 3.57311 0.861894)
(2.04596 3.57021 0.862526)
)

// edges

102
(
(13 43)
(44 13)
(12 45)
(46 47)
(48 0)
(0 1)
(2 49)
(49 50)
(51 52)
(3 53)
(54 3)
(55 0)
(53 56)
(57 58)
(50 4)
(4 54)
(59 51)
(1 2)
(1 60)
(61 55)
(62 63)
(64 62)
(63 61)
(52 10)
(10 65)
(3 59)
(65 11)
(9 57)
(11 66)
(66 8)
(58 67)
(68 69)
(70 64)
(71 72)
(67 70)
(73 74)
(75 76)
(12 77)
(78 14)
(12 75)
(44 43)
(74 78)
(79 80)
(81 15)
(82 83)
(2 5)
(84 82)
(16 79)
(47 85)
(6 86)
(5 6)
(80 84)
(60 5)
(83 4)
(73 17)
(7 87)
(6 7)
(46 14)
(88 81)
(89 90)
(91 89)
(92 88)
(93 92)
(90 93)
(7 91)
(76 9)
(15 12)
(8 20)
(21 22)
(22 9)
(11 19)
(20 21)
(23 13)
(13 24)
(14 23)
(25 8)
(15 26)
(27 16)
(28 27)
(29 28)
(17 30)
(26 31)
(31 14)
(30 29)
(17 10)
(32 17)
(33 32)
(34 35)
(9 36)
(10 37)
(36 38)
(35 33)
(37 17)
(16 34)
(24 15)
(38 25)
(39 40)
(40 41)
(41 42)
(42 39)
(18 11)
(19 18)
)

// concaveStart mixedStart nonFeatureStart
0 8 18
// internalStart flatStart openStart multipleStart
4 67 67 100
// normals

140
(
(0.870853 0.17504 -0.459321)
(0.960675 0.0643629 -0.270112)
(0.880554 0.165857 -0.443978)
(0.878149 0.170247 -0.447068)
(0.967287 0.0885139 -0.237742)
(0.965015 -0.232697 0.120821)
(0.860884 -0.508541 0.0162817)
(0.829733 -0.490232 0.266861)
(0.822494 -0.566977 0.0451739)
(0.041047 -0.997706 0.0538271)
(0.470454 -0.87497 0.114462)
(0.387718 -0.912784 0.128451)
(0.757894 -0.641695 0.117579)
(-0.110097 -0.940717 0.320828)
(-0.73758 -0.238935 0.631574)
(-0.633515 -0.395368 0.665089)
(-0.436079 -0.529728 0.727477)
(0.0312045 -0.796936 0.603257)
(-0.254993 -0.963665 0.0795501)
(-0.668163 -0.74066 0.070574)
(-0.235958 -0.665032 0.708559)
(0.99098 -0.119421 0.060804)
(0.987237 -0.133734 0.0864811)
(0.996525 0.0789761 0.0264683)
(0.979218 0.201461 0.0233709)
(0.596447 -0.720898 0.352926)
(0.708946 -0.680189 -0.186382)
(0.74777 -0.64089 0.173497)
(0.987792 0.153402 0.0270933)
(0.65479 -0.726117 -0.209773)
(0.976015 0.216911 0.0185582)
(0.107788 -0.931616 0.347092)
(0.725486 -0.688009 0.0177089)
(0 -0 1)
(0 0 1)
(-0.644877 -0.76091 0.0717532)
(0.765347 -0.611042 0.202166)
(0.291279 -0.884006 0.365637)
(-0.707551 -0.692396 0.14128)
(-0.971105 -0.232971 0.0517664)
(-0.0922646 0.971761 -0.21718)
(0.474424 0.86634 -0.156135)
(-9.24312e-06 0.213039 0.977044)
(0.699169 0.626829 -0.343871)
(-0.967382 0.252447 0.0210383)
(0.674 0.620973 -0.400146)
(-0.836938 0.495209 0.23303)
(0.683539 0.311903 -0.659917)
(0.988775 0.149392 -0.00238929)
(0.36055 0.830053 -0.42546)
(0.905803 -0.0182713 -0.423305)
(0.891383 0.43533 0.126188)
(0.102956 0.976628 -0.188673)
(2.6139e-05 0.213003 0.977051)
(0.723425 0.582288 -0.370942)
(0.964406 0.0529284 -0.259075)
(0.893558 -0.356857 0.272409)
(1.12874e-06 0.213033 0.977045)
(0.528949 0.789101 -0.3123)
(-0.563461 0.747348 0.352111)
(0.891584 0.434921 0.126183)
(0.803757 0.170066 -0.570134)
(0.97995 0.194491 0.0432673)
(0.403449 0.89563 -0.187286)
(-0.286107 0.921341 -0.263197)
(-9.48766e-06 0.21304 0.977044)
(0.291203 0.941612 -0.169018)
(-7.92612e-06 0.213044 0.977043)
(0.731941 0.680623 -0.0318403)
(6.68065e-06 0.21302 0.977048)
(0.875992 0.482077 0.015472)
(-5.83989e-06 0.213061 0.977039)
(0.514568 0.849073 -0.119557)
(1.99605e-06 0.21303 0.977046)
(0.499935 0.466577 -0.729637)
(0.998854 0.0361483 -0.0313636)
(0.967635 0.183009 0.173753)
(0.791962 0.280153 -0.542504)
(0.717375 -0.696076 -0.02918)
(0.759287 -0.568991 0.315804)
(-3.67201e-06 0.213023 0.977047)
(0.703546 -0.705533 0.0851262)
(0.991455 -0.126843 -0.0304671)
(0.737858 -0.661934 0.131942)
(0.967534 -0.148761 0.204323)
(-6.97849e-06 0.213008 0.97705)
(0.934071 0.356381 -0.0224412)
(0.983685 -0.170618 0.0570383)
(0.961824 0.267937 0.055719)
(-3.54758e-07 0.213023 0.977047)
(0.984167 0.173704 -0.0352498)
(0.906629 -0.419155 0.0482901)
(0.993921 0.0510618 0.097537)
(-5.74491e-08 0.21305 0.977041)
(0.549086 -0.834508 0.045844)
(-0.347047 -0.671548 0.654661)
(0.456588 -0.817254 0.351601)
(2.28479e-07 0.213031 0.977045)
(-0.266264 -0.913926 0.306337)
(0.397464 -0.904295 0.155796)
(-0.806462 -0.470656 0.357914)
(-1.36891e-05 0.213017 0.977048)
(0.169539 -0.981924 0.0841493)
(0.449278 -0.881991 0.142275)
(-0.620272 -0.566451 0.542583)
(-0.819594 0.0354435 0.571847)
(0.975435 0.218298 0.0295492)
(-3.00711e-06 0.213031 0.977045)
(-0.730626 0.512048 0.451656)
(0.950989 0.296548 0.0876319)
(-0.873149 0.462853 -0.152901)
(-0.473862 0.843202 -0.2539)
(-0.798887 0.321004 0.508661)
(0.971786 0.231667 0.0442912)
(-0.799697 -0.0849217 0.594368)
(0.975377 0.21902 0.0259023)
(-0.967021 -0.238854 0.0884318)
(-0.637259 0.74003 -0.215073)
(-0.951997 0.292947 -0.0887902)
(-1.22599e-05 0.213037 0.977044)
(-0.821807 0.16696 0.544754)
(0.974767 0.22068 0.033624)
(2.53221e-05 0.213015 0.977049)
(-0.817359 0.559974 -0.135475)
(-0.998534 0.0530297 0.0108528)
(4.6046e-05 0.213009 0.97705)
(-0.321767 -0.890701 0.32112)
(-2.70796e-05 0.213017 0.977048)
(-0.959292 -0.237714 0.152482)
(1.71789e-05 0.213034 0.977045)
(-0.997609 0.0311189 0.0617035)
(-0.506865 -0.804955 0.308441)
(-2.69489e-05 0.213018 0.977048)
(-0.659025 -0.696147 0.284718)
(6.15242e-06 0.21303 0.977046)
(-0.827958 -0.50922 0.234905)
(2.64089e-05 0.213035 0.977044)
(-0.95384 0.296469 -0.047907)
(9.66096e-06 0.213042 0.977043)
(3.05002e-05 0.213054 0.97704)
)

// edgeNormals

102
(
2(9 35)
2(10 35)
2(36 37)
2(38 39)
2(40 41)
2(40 42)
2(43 44)
2(45 46)
2(47 48)
2(49 50)
2(49 51)
2(52 53)
2(54 55)
2(56 57)
2(58 59)
2(58 60)
2(61 62)
2(63 64)
2(64 65)
2(66 67)
2(68 69)
2(70 71)
2(72 73)
2(74 75)
2(74 26)
2(50 76)
2(77 78)
2(79 80)
2(1 81)
2(82 83)
2(84 85)
2(86 87)
2(88 89)
2(90 91)
2(92 93)
2(94 95)
2(96 97)
2(98 36)
2(99 100)
2(37 101)
2(35 102)
2(103 104)
2(105 106)
2(13 107)
2(108 109)
2(110 111)
2(112 113)
2(114 115)
2(38 116)
2(117 118)
2(117 119)
2(120 121)
2(111 122)
2(59 60)
2(17 29)
2(123 124)
2(123 125)
2(39 19)
2(126 127)
2(128 129)
2(130 129)
2(131 132)
2(133 134)
2(135 136)
2(137 125)
2(25 138)
2(31 139)
1(5)
1(6)
1(7)
1(0)
1(8)
1(9)
1(10)
1(11)
1(12)
1(13)
1(14)
1(15)
1(16)
1(17)
1(18)
1(19)
1(20)
1(21)
1(22)
1(23)
1(24)
1(25)
1(26)
1(27)
1(28)
1(29)
1(30)
1(31)
1(32)
1(33)
1(33)
1(34)
1(34)
3(0 1 2)
3(0 3 4)
)

// featurePointNormals

18
(
4(40 41 42 52)
4(40 42 63 64)
6(43 44 63 64 110 111)
4(49 50 51 76)
3(58 59 60)
4(110 111 117 119)
4(117 118 119 123)
4(123 124 125 137)
4(82 83 5 12)
4(79 80 25 7)
4(74 75 26 21)
6(77 78 1 81 0 2)
5(36 37 98 101 31)
3(9 35 10)
5(99 100 39 19 11)
3(13 107 31)
4(114 115 14 30)
4(17 29 21 22)
)

// featurePointEdges

18
(
3(4 5 11)
3(5 17 18)
3(6 17 45)
3(9 10 25)
3(14 15 53)
3(45 50 52)
3(49 50 56)
3(55 56 64)
3(29 67 75)
4(27 65 69 88)
4(23 24 84 89)
4(26 100 28 70)
4(37 2 39 66)
4(0 1 72 73)
4(38 57 74 82)
4(43 66 76 94)
3(47 77 93)
5(54 80 84 85 92)
)

// regionEdges

35
(
100
101
67
68
69
70
71
72
73
74
75
76
77
78
79
80
81
82
83
84
85
86
87
88
89
90
91
92
93
94
95
96
97
98
99
)



// ************************************************************************* //
