/*--------------------------------*- C++ -*----------------------------------*\
| =========                 |                                                 |
| \\      /  F ield         | OpenFOAM: The Open Source CFD Toolbox           |
|  \\    /   O peration     | Version:  2.2.x                                 |
|   \\  /    A nd           | Web:      www.OpenFOAM.org                      |
|    \\/     M anipulation  |                                                 |
\*---------------------------------------------------------------------------*/
FoamFile
{
    version     2.0;
    format      ascii;
    class       extendedFeatureEdgeMesh;
    location    "constant/extendedFeatureEdgeMesh";
    object      hand_right.extendedFeatureEdgeMesh;
}
// * * * * * * * * * * * * * * * * * * * * * * * * * * * * * * * * * * * * * //

// points

94
(
(1.55691 3.48821 0.747783)
(1.58506 3.47419 0.678053)
(1.58723 3.47739 0.682435)
(1.59407 3.53567 0.686697)
(1.57132 3.55326 0.72282)
(1.55456 3.52988 0.871319)
(1.54935 3.5371 0.869745)
(1.57763 3.52499 0.872384)
(1.5699 3.52345 0.87272)
(1.56199 3.52498 0.872387)
(1.58433 3.57143 0.86226)
(1.5803 3.54752 0.718119)
(1.59146 3.53986 0.869144)
(1.5945 3.53416 0.690616)
(1.59311 3.54658 0.867679)
(1.56961 3.55591 0.766801)
(1.56981 3.57719 0.861004)
(1.57387 3.57679 0.86109)
(1.57388 3.52386 0.872631)
(1.56588 3.52383 0.872637)
(1.58372 3.55393 0.796852)
(1.58177 3.55315 0.75172)
(1.58066 3.56409 0.841032)
(1.5851 3.5414 0.702877)
(1.59308 3.54637 0.867724)
(1.57977 3.5516 0.734701)
(1.57958 3.55051 0.729098)
(1.58476 3.55267 0.774295)
(1.58773 3.53908 0.698398)
(1.58118 3.57383 0.861736)
(1.57767 3.57565 0.86134)
(1.58297 3.5436 0.707688)
(1.58066 3.55815 0.819075)
(1.56743 3.52359 0.87269)
(1.57299 3.5237 0.872666)
(1.57523 3.57647 0.86116)
(1.58016 3.57445 0.861602)
(1.59137 3.53991 0.869133)
(1.93178 3.55436 0.0916016)
(1.93161 3.55431 0.0916016)
(1.93165 3.54566 0.0916016)
(1.93182 3.54692 0.0916016)
(1.5699 3.54591 0.716353)
(1.5761 3.56729 0.839825)
(1.5572 3.50549 0.796318)
(1.56335 3.50192 0.77353)
(1.57142 3.47392 0.700456)
(1.58618 3.47584 0.680308)
(1.56186 3.47888 0.724251)
(1.58351 3.52852 0.871615)
(1.58878 3.56615 0.86341)
(1.57115 3.49158 0.727274)
(1.57694 3.48406 0.704173)
(1.59429 3.52129 0.68253)
(1.59213 3.50694 0.677982)
(1.58914 3.49196 0.677721)
(1.58822 3.53365 0.870498)
(1.58414 3.52882 0.770538)
(1.59321 3.55304 0.866269)
(1.59238 3.55705 0.865396)
(1.59181 3.55976 0.864805)
(1.58756 3.54125 0.771687)
(1.58703 3.54783 0.818903)
(1.58648 3.53496 0.770877)
(1.58804 3.5421 0.819189)
(1.58835 3.49116 0.661526)
(1.58933 3.49561 0.660842)
(1.55402 3.50055 0.768797)
(1.56723 3.55311 0.765038)
(1.55802 3.52708 0.87193)
(1.59451 3.52892 0.677797)
(1.58589 3.5411 0.693447)
(1.58538 3.4763 0.673064)
(1.5859 3.47919 0.668941)
(1.58659 3.48273 0.665626)
(1.58742 3.48677 0.663136)
(1.56532 3.5767 0.86111)
(1.57924 3.54595 0.701946)
(1.56774 3.56096 0.815028)
(1.57431 3.55006 0.711864)
(1.54898 3.56274 0.864153)
(1.54653 3.55405 0.866049)
(1.59129 3.50446 0.661911)
(1.59297 3.51307 0.665425)
(1.59408 3.52114 0.670635)
(1.57202 3.55831 0.769137)
(1.57159 3.56206 0.816043)
(1.56115 3.5753 0.861415)
(1.55737 3.57311 0.861894)
(1.55404 3.57021 0.862526)
(1.54668 3.5454 0.867934)
(1.55207 3.50757 0.764066)
(1.59429 3.53489 0.688714)
(1.57432 3.56195 0.81693)
)

// edges

98
(
(42 15)
(43 17)
(0 44)
(45 8)
(1 46)
(47 1)
(48 0)
(7 49)
(46 48)
(50 10)
(51 52)
(53 54)
(2 52)
(55 2)
(2 47)
(54 55)
(56 12)
(57 12)
(58 59)
(59 60)
(13 53)
(61 62)
(14 58)
(60 50)
(49 56)
(63 64)
(65 66)
(0 67)
(68 42)
(69 9)
(70 3)
(3 71)
(1 72)
(72 73)
(73 74)
(74 75)
(16 76)
(75 65)
(71 77)
(4 15)
(78 15)
(77 79)
(80 81)
(82 83)
(83 84)
(84 70)
(85 86)
(87 88)
(88 89)
(4 85)
(89 80)
(76 87)
(66 82)
(79 4)
(81 90)
(6 91)
(5 67)
(6 5)
(90 6)
(5 69)
(13 92)
(92 3)
(17 93)
(18 7)
(8 18)
(9 19)
(19 8)
(20 21)
(22 20)
(23 13)
(12 24)
(11 23)
(24 14)
(21 25)
(25 11)
(17 16)
(11 26)
(26 27)
(13 28)
(10 29)
(30 17)
(29 30)
(31 11)
(28 31)
(27 32)
(32 22)
(9 33)
(33 34)
(35 16)
(34 7)
(36 35)
(10 36)
(12 37)
(37 14)
(38 39)
(39 40)
(40 41)
(41 38)
)

// concaveStart mixedStart nonFeatureStart
0 7 18
// internalStart flatStart openStart multipleStart
2 63 63 98
// normals

135
(
(-0.295312 0.940437 -0.168432)
(-0.104111 0.976493 -0.188741)
(0.289366 0.922731 -0.254628)
(0.0964998 0.971337 -0.217236)
(-0.822497 -0.566972 0.0451761)
(-0.926735 -0.375058 0.0222377)
(-0.591315 0.408922 -0.695075)
(-0.965578 0.25356 0.0580264)
(-0.902657 0.217465 -0.371374)
(-0.985611 0.143208 0.0897946)
(-0.950321 -0.279447 0.137112)
(-0.990894 -0.134633 0.00182455)
(-0.0993154 -0.944304 0.31373)
(-0.738073 -0.661709 0.131871)
(-0.757951 -0.64163 0.117566)
(-0.708954 -0.680182 -0.186379)
(-0.604151 -0.715174 0.351466)
(-0.290133 -0.884711 0.364841)
(-0.461257 -0.812899 0.35558)
(-0.779492 -0.625405 0.0355046)
(-0.716962 -0.696522 -0.0286971)
(-0.725417 -0.688081 0.0177412)
(-0.747969 -0.640652 0.173514)
(2.7886e-05 0.213031 0.977045)
(-1.13014e-05 0.213031 0.977045)
(-2.13339e-05 0.21303 0.977046)
(-1.38618e-06 0.213029 0.977046)
(-1.07508e-06 0.213029 0.977046)
(-2.93128e-05 0.213027 0.977046)
(-0.000473689 0.213272 0.976993)
(-4.24488e-05 0.213031 0.977045)
(0 -0 1)
(0 0 1)
(0.707724 -0.692226 0.141246)
(0.971101 -0.232986 0.0517672)
(-0.743052 -0.636603 0.206422)
(-0.577655 0.770052 -0.270804)
(0.834025 0.51816 -0.189504)
(-0.474303 0.866294 -0.156751)
(-0.528947 0.789102 -0.312302)
(0.563333 0.74748 0.352037)
(-0.891634 0.43478 0.126312)
(-0.679018 0.62226 -0.389521)
(0.942967 0.325634 0.0691041)
(-0.522289 0.844532 -0.118237)
(1.22161e-06 0.213029 0.977046)
(-0.674015 0.620958 -0.400143)
(0.836891 0.49531 0.232982)
(-0.756499 -0.566702 0.326432)
(3.65223e-05 0.213032 0.977045)
(-0.723426 0.582288 -0.370938)
(-0.964406 0.0529368 -0.259073)
(-0.683499 0.311909 -0.659956)
(-0.988505 0.150998 -0.00758511)
(-0.905803 -0.0182713 -0.423305)
(-0.360566 0.830043 -0.425464)
(-0.96764 0.183003 0.173731)
(-0.891459 0.435138 0.126316)
(-0.803757 0.170066 -0.570134)
(-0.980465 0.194883 0.0266367)
(-0.885413 0.464585 0.0142682)
(-0.993786 -0.075142 0.0821219)
(-0.881488 0.472039 0.0125677)
(-0.96618 -0.155728 0.205536)
(-0.000166887 0.21302 0.977048)
(-0.966179 -0.155732 0.205537)
(-0.000150796 0.213021 0.977048)
(-0.613279 0.427378 -0.664256)
(-0.994971 -0.0410133 0.0913823)
(-0.906629 -0.419155 0.0482985)
(-0.984159 0.173749 -0.0352594)
(-0.994253 0.0368356 0.100515)
(-0.890851 -0.363714 0.272208)
(7.9036e-06 0.21303 0.977046)
(-0.738769 0.673261 -0.0306756)
(-1.51544e-05 0.213027 0.977046)
(-0.983689 -0.170598 0.0570355)
(-0.934077 0.356365 -0.0224387)
(0.809125 -0.089057 0.58085)
(-0.975382 0.218996 0.0259094)
(0.985069 -0.0499003 0.16477)
(0.967026 -0.238837 0.0884214)
(0.4741 0.845285 -0.246421)
(-1.63729e-05 0.213031 0.977045)
(-0.0312014 -0.796937 0.603256)
(-0.989302 -0.135232 0.0547087)
(-0.654737 -0.726168 -0.20976)
(0.729972 0.512565 0.452126)
(-0.950879 0.296896 0.0876419)
(0.802477 0.317235 0.505364)
(-0.971778 0.231689 0.0443514)
(0.827065 0.161931 0.538278)
(-0.975474 0.218167 0.0292256)
(0.110097 -0.940717 0.320828)
(3.11812e-06 0.21303 0.977046)
(0.826835 0.0301293 0.561637)
(0.290382 -0.715557 0.63534)
(-0.549143 -0.834469 0.0458535)
(0.668321 -0.740518 0.0705715)
(0.246555 -0.962819 0.11041)
(0.725515 -0.680989 0.0994049)
(0.615299 -0.571997 0.542426)
(-0.449272 -0.881994 0.142268)
(0.959289 -0.237727 0.152481)
(-1.71718e-05 0.213034 0.977045)
(0.678488 -0.387446 0.62413)
(-0.933805 0.275705 -0.228024)
(0.436079 -0.529728 0.727477)
(0.335308 -0.647856 0.683997)
(-0.999141 0.0226271 0.0347067)
(0.671302 -0.738308 0.0652346)
(-0.20199 -0.9764 0.076445)
(0.506947 -0.804904 0.30844)
(2.02218e-05 0.213029 0.977046)
(0.659038 -0.696135 0.284717)
(-5.53284e-06 0.213029 0.977046)
(-0.379414 -0.919156 0.105814)
(0.827964 -0.50921 0.234904)
(-1.61919e-05 0.213029 0.977046)
(0.321701 -0.890726 0.321118)
(2.21616e-05 0.213031 0.977045)
(0.765807 -0.240902 0.596244)
(-0.976856 0.212788 0.0217637)
(0.840472 -0.41329 0.350425)
(-0.397465 -0.904294 0.1558)
(0.997609 0.0312183 0.0616547)
(0.998533 0.0530558 0.0108455)
(0.817365 0.559965 -0.135473)
(0.952005 0.292922 -0.0887829)
(0.637246 0.74004 -0.215076)
(-1.65658e-05 0.213029 0.977046)
(0.953871 0.296374 -0.0478848)
(2.15707e-05 0.213029 0.977046)
(5.07395e-06 0.213028 0.977046)
(-0.209506 -0.927498 0.309603)
)

// edgeNormals

98
(
2(33 34)
2(35 17)
2(36 37)
2(38 3)
2(39 40)
2(39 41)
2(42 43)
2(44 45)
2(46 47)
2(48 49)
2(50 51)
2(52 53)
2(54 55)
2(54 56)
2(55 57)
2(58 59)
2(60 29)
2(61 62)
2(63 64)
2(65 66)
2(67 68)
2(69 70)
2(71 64)
2(72 73)
2(74 75)
2(76 77)
2(78 79)
2(37 80)
2(33 81)
2(82 83)
2(84 85)
2(84 86)
2(40 41)
2(87 88)
2(89 90)
2(91 92)
2(93 94)
2(95 92)
2(96 97)
2(34 98)
2(99 100)
2(101 102)
2(103 104)
2(105 106)
2(107 106)
2(108 109)
2(110 111)
2(112 113)
2(114 115)
2(98 116)
2(117 118)
2(119 120)
2(121 122)
2(123 124)
2(125 104)
2(126 127)
2(128 129)
2(127 130)
2(131 132)
2(129 133)
2(68 15)
2(85 86)
2(35 134)
1(0)
1(1)
1(2)
1(3)
1(4)
1(5)
1(6)
1(7)
1(8)
1(9)
1(10)
1(11)
1(12)
1(13)
1(14)
1(15)
1(16)
1(17)
1(18)
1(19)
1(20)
1(21)
1(22)
1(23)
1(24)
1(25)
1(26)
1(27)
1(28)
1(29)
1(30)
1(31)
1(31)
1(32)
1(32)
)

// featurePointNormals

18
(
5(36 37 42 43 80)
3(39 40 41)
4(54 55 56 57)
3(84 85 86)
5(34 98 116 123 124)
4(128 129 127 130)
4(126 127 130 131)
3(44 45 0)
3(38 3 1)
3(82 83 2)
3(48 49 16)
4(8 11 13 19)
5(60 29 61 62 7)
4(67 68 15 6)
3(71 64 9)
5(33 34 98 99 100)
3(93 94 12)
4(35 17 134 12)
)

// featurePointEdges

18
(
3(2 6 27)
3(4 5 32)
3(12 13 14)
3(30 31 61)
3(39 49 53)
3(56 57 59)
3(55 57 58)
3(7 63 89)
3(3 64 66)
3(29 65 86)
3(9 79 91)
4(71 74 76 82)
4(16 17 70 92)
4(20 60 69 78)
3(22 72 93)
3(0 39 40)
3(36 75 88)
4(1 62 75 80)
)

// regionEdges

35
(
63
64
65
66
67
68
69
70
71
72
73
74
75
76
77
78
79
80
81
82
83
84
85
86
87
88
89
90
91
92
93
94
95
96
97
)



// ************************************************************************* //
