/*--------------------------------*- C++ -*----------------------------------*\
| =========                 |                                                 |
| \\      /  F ield         | OpenFOAM: The Open Source CFD Toolbox           |
|  \\    /   O peration     | Version:  2.2.x                                 |
|   \\  /    A nd           | Web:      www.OpenFOAM.org                      |
|    \\/     M anipulation  |                                                 |
\*---------------------------------------------------------------------------*/
FoamFile
{
    version     2.0;
    format      ascii;
    class       extendedFeatureEdgeMesh;
    location    "constant/extendedFeatureEdgeMesh";
    object      head.extendedFeatureEdgeMesh;
}
// * * * * * * * * * * * * * * * * * * * * * * * * * * * * * * * * * * * * * //

// points

177
(
(1.81062 3.56086 1.48065)
(1.85183 3.5668 1.58947)
(1.74802 3.56678 1.59145)
(1.74905 3.56767 1.58943)
(1.74887 3.56745 1.59012)
(1.74877 3.56736 1.58982)
(1.74872 3.56735 1.59085)
(1.74888 3.56746 1.59015)
(1.8 3.55884 1.47909)
(1.8416 3.56086 1.53064)
(1.85096 3.56767 1.58943)
(1.85175 3.56669 1.59583)
(1.85424 3.5644 1.59006)
(1.86183 3.55228 1.58729)
(1.86863 3.49615 1.58598)
(1.85123 3.56736 1.58982)
(1.85367 3.55338 1.62339)
(1.85137 3.56727 1.59268)
(1.85113 3.56745 1.59012)
(1.85108 3.56747 1.59022)
(1.86044 3.52048 1.63582)
(1.85158 3.56708 1.5901)
(1.85157 3.5671 1.59012)
(1.85198 3.56678 1.59145)
(1.85128 3.56735 1.59085)
(1.85112 3.56746 1.59015)
(1.76066 3.49859 1.47433)
(1.76095 3.54661 1.48091)
(1.7584 3.56086 1.53064)
(1.83934 3.49859 1.47433)
(1.77854 3.55933 1.48153)
(1.85847 3.46082 1.53561)
(1.85649 3.4824 1.51108)
(1.84962 3.46728 1.49698)
(1.86119 3.45954 1.57537)
(1.75462 3.4986 1.50233)
(1.74888 3.47761 1.49944)
(1.75038 3.46728 1.49698)
(1.75053 3.47848 1.49727)
(1.76925 3.4899 1.47339)
(1.84514 3.4328 1.61168)
(1.81251 3.42311 1.62759)
(1.8 3.42137 1.62687)
(1.84947 3.47848 1.49727)
(1.85113 3.47761 1.49944)
(1.83075 3.4899 1.47339)
(1.85371 3.4752 1.50335)
(1.73881 3.45954 1.57537)
(1.74066 3.46058 1.54041)
(1.8593 3.46054 1.54042)
(1.8592 3.46054 1.54038)
(1.8 3.47805 1.49834)
(1.74886 3.56744 1.59009)
(1.74885 3.56743 1.59006)
(1.76868 3.5544 1.48162)
(1.85929 3.46054 1.54038)
(1.74718 3.5659 1.58914)
(1.74812 3.56676 1.58931)
(1.74885 3.56743 1.5911)
(1.74869 3.56731 1.59278)
(1.74837 3.56675 1.59602)
(1.74546 3.56406 1.58885)
(1.7424 3.56011 1.58828)
(1.74876 3.56736 1.58977)
(1.74892 3.56747 1.59022)
(1.7488 3.56739 1.59102)
(1.74781 3.56506 1.60236)
(1.74848 3.56714 1.59026)
(1.73068 3.51449 1.58644)
(1.73198 3.5236 1.58588)
(1.73777 3.55132 1.58718)
(1.73364 3.53269 1.58557)
(1.74843 3.5671 1.59012)
(1.74845 3.56711 1.59017)
(1.74847 3.56712 1.59021)
(1.74877 3.56737 1.59095)
(1.74863 3.56727 1.59268)
(1.74853 3.56721 1.5925)
(1.74875 3.56736 1.5909)
(1.83215 3.56698 1.53007)
(1.82195 3.57195 1.53039)
(1.84855 3.54545 1.53058)
(1.85372 3.5296 1.53229)
(1.85124 3.56736 1.58977)
(1.8512 3.56739 1.59102)
(1.86557 3.49659 1.62389)
(1.85962 3.49704 1.63722)
(1.85384 3.49773 1.645)
(1.85152 3.56714 1.59026)
(1.85153 3.56712 1.59021)
(1.85155 3.56711 1.59017)
(1.85147 3.56721 1.5925)
(1.85123 3.56737 1.59095)
(1.85125 3.56736 1.5909)
(1.75483 3.49862 1.50167)
(1.74415 3.49699 1.52743)
(1.74864 3.53757 1.53124)
(1.74455 3.52145 1.53305)
(1.82909 3.49868 1.66258)
(1.8 3.5 1.66862)
(1.84538 3.4986 1.50233)
(1.75145 3.54545 1.53058)
(1.74628 3.5296 1.53229)
(1.7679 3.567 1.53008)
(1.77808 3.57196 1.5304)
(1.86532 3.47759 1.58093)
(1.85934 3.46058 1.54041)
(1.76485 3.49403 1.47397)
(1.75837 3.49881 1.48813)
(1.86304 3.49672 1.63072)
(1.8673 3.49664 1.61638)
(1.85537 3.49753 1.6432)
(1.8149 3.49958 1.66646)
(1.84163 3.49881 1.48813)
(1.73654 3.46868 1.57828)
(1.73456 3.47781 1.58101)
(1.73284 3.48696 1.58357)
(1.73137 3.49615 1.58598)
(1.93178 3.55436 0.0916016)
(1.93161 3.55431 0.0916016)
(1.93165 3.54566 0.0916016)
(1.93182 3.54692 0.0916016)
(1.85907 3.46054 1.54042)
(1.84857 3.4608 1.53602)
(1.85134 3.56724 1.58955)
(1.85178 3.56686 1.58962)
(1.85118 3.5674 1.59104)
(1.85991 3.50926 1.63716)
(1.85559 3.55161 1.62193)
(1.85214 3.56531 1.60169)
(1.85159 3.56707 1.59007)
(1.76133 3.49231 1.48513)
(1.86481 3.4813 1.61547)
(1.82146 3.55933 1.48153)
(1.83806 3.55103 1.50666)
(1.83132 3.5544 1.48162)
(1.83905 3.54661 1.48091)
(1.85116 3.56744 1.59108)
(1.85729 3.56058 1.58835)
(1.85848 3.54209 1.62746)
(1.86035 3.53178 1.63276)
(1.85265 3.5661 1.58975)
(1.85603 3.53432 1.63871)
(1.85472 3.54474 1.63218)
(1.75582 3.52283 1.47767)
(1.75719 3.53507 1.47934)
(1.75698 3.51048 1.47597)
(1.76194 3.55103 1.50666)
(1.84302 3.51048 1.47597)
(1.84281 3.53507 1.47934)
(1.84418 3.52283 1.47767)
(1.75322 3.56801 1.55943)
(1.78938 3.56086 1.48065)
(1.75221 3.47937 1.49534)
(1.75914 3.48285 1.48874)
(1.76523 3.48619 1.48194)
(1.7676 3.48802 1.47792)
(1.85645 3.44952 1.59688)
(1.86723 3.48767 1.6002)
(1.84913 3.4369 1.60897)
(1.85219 3.44122 1.60543)
(1.83594 3.43308 1.62489)
(1.82438 3.4279 1.62697)
(1.84086 3.48285 1.48874)
(1.84779 3.47937 1.49534)
(1.8324 3.48802 1.47792)
(1.83477 3.48619 1.48194)
(1.83515 3.49403 1.47397)
(1.74607 3.44666 1.6129)
(1.74355 3.44952 1.59688)
(1.74921 3.44261 1.61751)
(1.74537 3.44546 1.591)
(1.75332 3.43884 1.6212)
(1.74153 3.46082 1.53561)
(1.77562 3.4279 1.62697)
(1.76406 3.43308 1.62489)
(1.78749 3.42311 1.62759)
)

// edges

233
(
(11 10)
(124 10)
(125 124)
(126 19)
(13 10)
(127 16)
(20 128)
(12 10)
(129 10)
(22 130)
(23 22)
(35 131)
(14 132)
(33 46)
(50 48)
(27 8)
(45 39)
(37 43)
(40 42)
(41 40)
(4 7)
(7 6)
(24 25)
(25 18)
(0 133)
(8 0)
(134 9)
(135 136)
(133 135)
(10 137)
(138 10)
(13 138)
(128 139)
(139 140)
(12 141)
(1 12)
(141 1)
(142 143)
(143 16)
(137 17)
(17 11)
(10 125)
(10 1)
(129 11)
(127 20)
(16 20)
(140 20)
(13 12)
(130 21)
(144 145)
(26 146)
(145 27)
(146 144)
(147 28)
(148 29)
(136 149)
(149 150)
(150 148)
(28 151)
(30 152)
(152 8)
(33 31)
(153 154)
(155 156)
(37 36)
(38 153)
(156 39)
(154 155)
(34 157)
(158 132)
(14 158)
(159 40)
(157 160)
(160 159)
(41 42)
(161 162)
(40 161)
(162 41)
(163 164)
(165 166)
(29 167)
(164 43)
(167 45)
(45 165)
(46 32)
(166 163)
(168 169)
(170 168)
(171 47)
(169 171)
(172 170)
(173 37)
(47 48)
(48 173)
(174 175)
(42 176)
(175 172)
(176 174)
(27 0)
(34 47)
(56 57)
(57 3)
(58 59)
(3 4)
(59 60)
(5 3)
(61 56)
(62 61)
(3 63)
(3 58)
(64 3)
(65 64)
(60 66)
(2 67)
(68 69)
(70 62)
(69 71)
(67 5)
(63 72)
(73 5)
(5 74)
(75 76)
(72 2)
(2 73)
(74 2)
(6 77)
(78 7)
(7 75)
(77 78)
(76 65)
(79 80)
(9 79)
(81 82)
(9 81)
(10 15)
(83 10)
(18 10)
(19 84)
(10 19)
(14 85)
(85 86)
(86 87)
(88 23)
(89 15)
(15 90)
(15 88)
(23 21)
(23 89)
(90 23)
(22 83)
(91 24)
(92 25)
(25 93)
(93 91)
(84 17)
(17 92)
(94 26)
(95 94)
(96 97)
(28 96)
(98 99)
(80 9)
(82 9)
(29 100)
(101 28)
(102 101)
(71 68)
(97 102)
(66 3)
(3 70)
(28 103)
(103 104)
(104 28)
(105 14)
(31 106)
(106 34)
(34 105)
(107 26)
(26 108)
(35 95)
(39 107)
(108 35)
(109 110)
(110 14)
(111 109)
(87 111)
(14 34)
(99 112)
(112 98)
(113 29)
(100 113)
(47 114)
(115 116)
(116 117)
(114 115)
(117 47)
(118 119)
(119 120)
(120 121)
(121 118)
(48 122)
(122 49)
(51 44)
(37 46)
(39 26)
(38 51)
(33 55)
(50 37)
(49 34)
(31 123)
(123 50)
(3 52)
(52 53)
(53 3)
(4 6)
(22 21)
(24 18)
(27 54)
(54 30)
(32 33)
(36 38)
(43 44)
(44 32)
(44 46)
(55 50)
(50 49)
(48 49)
(43 51)
(44 33)
(44 37)
(27 30)
(51 36)
(33 37)
)

// concaveStart mixedStart nonFeatureStart
0 2 52
// internalStart flatStart openStart multipleStart
24 100 100 211
// normals

263
(
(0.63722 -0.766133 -0.0836112)
(0.749333 -0.661985 -0.0166201)
(-0.63722 0.766133 0.0836112)
(0.514068 -0.857557 -0.0181746)
(0.590768 -0.799283 -0.110182)
(0.685052 -0.727542 0.0372393)
(0.488748 -0.872113 -0.0233149)
(-0.488748 0.872113 0.0233149)
(-0.931597 0.093382 -0.351294)
(0.702762 0.709486 -0.0524905)
(-0.671441 -0.737318 0.074353)
(-0.685052 -0.727542 0.0372393)
(-0.486207 -0.873513 -0.0240321)
(0.486207 0.873513 0.0240321)
(0.701968 -0.705962 0.0941162)
(-0.106099 0.194448 -0.975158)
(-0.106099 0.194448 -0.975158)
(0.447453 -0.894285 -0.00636767)
(-0.947898 0.197267 0.250151)
(0.699143 -0.63109 0.336042)
(-0.91312 0.0359921 0.406099)
(0.814032 -0.287387 0.504738)
(8.40822e-07 -0.92929 -0.369351)
(0.00128213 -0.929623 -0.368509)
(-0.814032 -0.287395 0.504734)
(8.4082e-07 0.92929 0.369351)
(0.102379 -0.89524 -0.433663)
(-0.817439 -0.291586 0.49676)
(-0.866936 -0.168675 0.46901)
(-0.836659 -0.00886626 0.547653)
(-0.0976278 0.816701 0.568742)
(0 0.995714 0.0924812)
(0 0.995714 0.0924812)
(0 -0.988141 -0.153552)
(0.000341077 0.995792 0.0916415)
(3.65838e-05 0.00700215 -0.999975)
(-0.000344521 -0.999576 -0.0291267)
(-0.0229947 0.228623 -0.973243)
(-0.00131864 -0.906864 -0.421421)
(0 0.231854 -0.972751)
(-0.106186 0.194567 -0.975125)
(-0.0229961 0.22863 -0.973242)
(-0.00131705 -0.906864 -0.421421)
(0 -0.988141 -0.153552)
(0 -0.986275 -0.165113)
(0.664431 -0.745818 0.0478353)
(0.703841 -0.691316 -0.163372)
(0.662904 -0.748672 0.00699838)
(0.582848 -0.808567 -0.0806707)
(0.764221 -0.643728 0.0397511)
(0.729703 -0.683588 0.0155507)
(0.791476 -0.610883 -0.0197066)
(0.725824 -0.687755 -0.0131324)
(0.926033 -0.373276 0.0559257)
(0.724615 -0.688406 0.032104)
(0.633839 -0.75937 -0.146985)
(0.667702 -0.743396 0.0392076)
(0.985937 -0.145748 -0.0817718)
(0.886622 -0.458608 -0.0598347)
(0.98135 -0.181877 -0.0622258)
(0.657212 -0.752311 0.0458313)
(0.671441 -0.737318 0.074353)
(0.61298 -0.790085 -0.00454649)
(0.543962 -0.839106 -0.00272835)
(0.702762 -0.709486 0.0524905)
(0.605288 -0.796007 4.72946e-05)
(0.586418 -0.810008 -0.000571195)
(0.306577 -0.949836 -0.0618288)
(0.289277 -0.955765 -0.053216)
(0.727111 -0.685903 0.0291046)
(-0.394811 -0.834176 0.385064)
(-0.516763 -0.762738 0.388827)
(-0.90606 -0.259675 0.334101)
(-0.88072 -0.397834 0.257022)
(-0.76349 -0.644673 0.038478)
(-0.725824 -0.687755 -0.0131324)
(-0.749333 -0.661985 -0.0166201)
(-0.724615 -0.688406 0.032104)
(-0.970796 -0.217484 0.101276)
(-0.981081 0.175715 -0.0812612)
(-0.912644 0.0196012 -0.408285)
(-0.801488 0.0287156 -0.597321)
(-0.666791 -0.744216 0.0391368)
(-0.61298 -0.790085 -0.00454649)
(-0.657681 -0.751957 0.0448975)
(-0.605288 -0.796007 4.72946e-05)
(-0.586077 -0.810255 -0.000673002)
(-0.307669 -0.949498 -0.0615902)
(-0.290399 -0.955435 -0.0530345)
(-0.727111 -0.685903 0.0291046)
(-0.544381 -0.838834 -0.00267884)
(0.97009 0.126937 0.206912)
(0.921771 -0.0935285 0.376286)
(0.935955 -0.205173 0.28617)
(0.887832 -0.364785 0.280511)
(-0.20769 -0.170163 -0.963281)
(-0.448944 -0.78604 0.42496)
(-0.902344 -0.335484 0.270604)
(-0.942904 0.263762 0.203377)
(0.880657 -0.397745 0.257374)
(0.906063 -0.259677 0.334091)
(0.984829 -0.15694 0.074035)
(0.929867 -0.166733 0.327945)
(0.707064 -0.70323 -0.0743468)
(0.820806 -0.570305 0.0320957)
(0.530821 -0.795177 0.293126)
(0.395477 -0.835886 0.380647)
(0.456575 -0.801232 0.386739)
(-0.984663 0.152042 0.0855642)
(-0.982392 -0.0684344 0.173847)
(-0.97683 0.206068 0.0577928)
(0.736063 0.667676 0.111447)
(0.823308 -0.473349 0.313216)
(0.632443 0.606245 0.482165)
(0.919742 0.304741 0.247403)
(-0.944608 0.169455 -0.281071)
(-0.985702 0.162133 -0.0458669)
(-0.847152 0.0771289 -0.525722)
(-0.754258 0.0866823 -0.650831)
(-0.974757 0.215284 -0.0591778)
(-0.138288 0.131308 -0.981649)
(-0.255088 0.118249 -0.95966)
(-0.736054 0.667686 0.111445)
(-0.964366 -0.0759207 0.253443)
(0.948663 0.281285 -0.144631)
(0.978861 0.198273 -0.0501956)
(0.984802 0.168363 -0.042644)
(0.969204 0.233905 -0.077025)
(0.973991 0.21695 -0.0653756)
(0 -0 1)
(0 0 1)
(0.00657566 0.113997 -0.993459)
(-0.000171717 -0.999593 -0.0285315)
(0 -0.99877 -0.0495843)
(-0.000332056 -0.998325 -0.0578484)
(0.992506 0.025487 -0.119505)
(0.80501 -0.563304 -0.186139)
(-0.345461 -0.538523 -0.768538)
(-0.740753 -0.671414 0.0221082)
(-0.660646 -0.746882 0.0755956)
(-0.0732544 0.0865497 -0.993551)
(-0.629311 -0.524677 0.573308)
(0.709603 -0.116602 -0.694887)
(-0.987932 -0.150695 -0.0357877)
(0.754548 -0.165843 -0.634943)
(-0.752713 -0.362408 -0.549622)
(0.697307 0.714415 0.0580789)
(-0.740897 -0.669183 -0.0571417)
(-0.711797 -0.700022 0.0575667)
(0.876281 -0.227043 0.42495)
(-0.912989 -0.304502 -0.271532)
(0.23241 -0.819981 -0.523084)
(-0.106237 0.19467 -0.975099)
(0 0.137967 -0.990437)
(0 -0.923718 -0.383072)
(-0.201816 -0.394704 -0.89637)
(0.147965 -0.950004 -0.274951)
(0.375116 -0.900241 0.221031)
(-0.139453 -0.99022 0.00416691)
(0.0514855 -0.197045 -0.979042)
(0.185146 -0.982669 0.009055)
(-0.701968 -0.705962 0.0941162)
(0.00995426 0.100733 -0.994864)
(-0.447453 -0.894285 -0.00637179)
(0.023295 0.0285403 -0.999321)
(-0.818928 -0.573471 0.022079)
(-0.734984 -0.671442 0.0946843)
(-0.864127 -0.488434 0.121312)
(0.446551 -0.343997 -0.825989)
(-0.839326 -0.439978 -0.319298)
(-0.921391 -0.296118 -0.251702)
(-0.624077 -0.474998 0.620407)
(-0.728067 -0.685445 0.00919349)
(-0.66466 -0.745801 0.0448031)
(-0.991106 -0.132473 -0.0126294)
(-0.616909 -0.472163 -0.629671)
(-0.635866 -0.586766 -0.501379)
(0.978867 -0.144572 -0.144629)
(-0.80409 -0.592765 0.0454957)
(-0.62464 -0.777863 -0.0689532)
(-0.700112 -0.713768 0.0194522)
(-0.727188 -0.677349 -0.111338)
(-0.927792 -0.000451217 -0.373098)
(-0.944278 -0.093302 -0.315649)
(-0.851968 -0.520835 -0.0536786)
(-0.679798 -0.727725 0.0910584)
(0.993823 -0.11093 -0.00322095)
(-0.00494442 0.135847 -0.990718)
(0.951246 0.275173 0.139321)
(-0.000238967 0.136471 -0.990644)
(0.949986 -0.311831 0.016944)
(-0.0194477 0.140919 -0.98983)
(0.991721 0.0799265 0.1005)
(-0.000275983 0.135972 -0.990713)
(0.463506 -0.793814 0.393727)
(-0.00378312 0.137692 -0.990468)
(-0.949986 -0.311831 0.016944)
(0.000247338 0.134805 -0.990872)
(-0.973197 -0.13453 0.186519)
(0.000275336 0.135335 -0.9908)
(-0.981176 0.0679094 0.180782)
(-0.00339121 0.136311 -0.99066)
(0.139835 -0.990134 0.00904389)
(-0.185148 -0.982669 0.00905503)
(0.730611 -0.251751 0.634688)
(0 -0.884815 -0.465943)
(0.796469 0.212513 0.566106)
(2.62373e-06 -0.90968 -0.41531)
(0.913108 0.0358864 0.406136)
(0.78385 -0.266626 0.560793)
(1.18854e-06 -0.906434 -0.422347)
(3.02737e-06 -0.923703 -0.383108)
(0.776367 -0.197772 0.598448)
(0 -0.897822 -0.440359)
(-0.933944 0.355119 -0.040489)
(0.255378 -0.896814 -0.361256)
(-0.970974 0.232429 -0.0564401)
(-0.979194 0.201543 0.0236611)
(-0.77071 0.588679 -0.243853)
(-0.916192 0.393874 -0.0738643)
(-0.0164927 -0.713261 -0.700705)
(-0.861743 0.482965 -0.15538)
(-0.10973 -0.581772 -0.805916)
(-0.0860267 0.840689 -0.534641)
(-0.427746 0.754766 -0.497354)
(0.434818 -0.841399 0.320908)
(-0.574534 0.705303 -0.415281)
(-0.342503 0.780173 -0.523471)
(-0.730611 -0.251759 0.634685)
(0 -0.884815 -0.465943)
(-0.796469 0.212513 0.566106)
(-2.62372e-06 -0.90968 -0.41531)
(0.00393962 0.0761104 -0.997092)
(-0.78385 -0.266634 0.560789)
(-0.00131862 -0.906874 -0.421401)
(-0.632439 0.60624 0.482178)
(-3.02737e-06 -0.923703 -0.383108)
(-0.776368 -0.197781 0.598444)
(0 -0.897822 -0.440359)
(0.919407 0.385938 -0.0757874)
(-0.879909 -0.472042 0.054195)
(0.869939 0.453895 -0.192835)
(-0.82019 -0.569184 0.0576034)
(0.145842 -0.704005 -0.695059)
(0.928496 0.370025 0.031251)
(0.776719 0.55317 -0.301183)
(-0.685234 -0.728022 0.0209436)
(0.947912 0.197231 0.250124)
(0 -0.986275 -0.165113)
(0.957733 0.281537 0.0590259)
(-0.000172803 -0.999558 -0.0297182)
(0.976302 0.117155 0.18196)
(4.69725e-07 -0.998764 -0.0497087)
(0.427746 0.754768 -0.497351)
(-0.38797 -0.913847 -0.119845)
(0.0828021 0.826623 -0.556631)
(-0.148873 -0.910802 -0.385067)
(0.537202 0.693853 -0.479565)
(-0.450994 -0.889277 -0.0761004)
(0.342503 0.780174 -0.523469)
(-0.36411 -0.920302 -0.143067)
(0 -0.999576 -0.029123)
(0 -0.803397 -0.595444)
)

// edgeNormals

233
(
2(135 136)
2(137 138)
2(137 139)
2(77 78)
2(140 141)
2(142 143)
2(144 145)
2(141 146)
2(136 147)
2(148 8)
2(148 9)
2(114 149)
2(116 150)
2(19 29)
2(34 134)
2(151 152)
2(153 154)
2(26 37)
2(155 156)
2(157 156)
2(6 7)
2(6 7)
2(12 13)
2(12 13)
2(158 159)
2(160 151)
2(71 97)
2(161 162)
2(163 164)
2(135 165)
2(166 140)
2(167 140)
2(168 169)
2(168 170)
2(171 172)
2(171 146)
2(171 173)
2(174 175)
2(174 176)
2(177 178)
2(177 179)
2(137 180)
2(180 146)
2(181 136)
2(182 142)
2(142 145)
2(144 183)
2(141 184)
2(185 8)
2(186 187)
2(188 189)
2(190 191)
2(192 193)
2(94 194)
2(98 195)
2(196 197)
2(198 199)
2(200 201)
2(99 105)
2(202 40)
2(203 152)
2(18 44)
2(204 205)
2(206 207)
2(208 41)
2(209 210)
2(113 211)
2(212 213)
2(214 215)
2(150 216)
2(150 217)
2(218 155)
2(219 220)
2(221 222)
2(223 156)
2(224 225)
2(226 225)
2(227 157)
2(228 229)
2(230 231)
2(122 232)
2(233 234)
2(235 153)
2(235 236)
2(28 19)
2(237 238)
2(239 240)
2(241 242)
2(124 243)
2(244 240)
2(245 246)
2(247 248)
2(249 250)
2(251 252)
2(253 254)
2(255 256)
2(257 258)
2(259 260)
2(159 151)
2(261 262)
1(45)
1(46)
1(47)
1(1)
1(48)
1(49)
1(50)
1(51)
1(52)
1(53)
1(53)
1(54)
1(55)
1(56)
1(57)
1(58)
1(59)
1(60)
1(61)
1(62)
1(62)
1(63)
1(64)
1(65)
1(65)
1(66)
1(67)
1(67)
1(68)
1(69)
1(70)
1(71)
1(72)
1(73)
1(74)
1(75)
1(76)
1(77)
1(78)
1(79)
1(80)
1(81)
1(82)
1(83)
1(83)
1(84)
1(9)
1(85)
1(85)
1(10)
1(86)
1(87)
1(87)
1(88)
1(89)
1(90)
1(91)
1(92)
1(93)
1(94)
1(95)
1(96)
1(97)
1(98)
1(99)
1(100)
1(101)
1(102)
1(103)
1(104)
1(105)
1(106)
1(107)
1(108)
1(109)
1(110)
1(110)
1(111)
1(111)
1(112)
1(113)
1(114)
1(115)
1(116)
1(117)
1(118)
1(119)
1(120)
1(121)
1(122)
1(123)
1(124)
1(125)
1(126)
1(127)
1(128)
1(129)
1(129)
1(130)
1(130)
1(35)
1(35)
1(25)
1(30)
1(131)
1(22)
1(43)
1(33)
1(132)
1(133)
1(134)
3(0 1 2)
3(0 2 3)
3(0 2 4)
3(5 6 7)
3(8 9 10)
3(11 12 13)
3(14 15 16)
3(17 15 16)
3(18 19 20)
3(21 22 23)
3(24 25 26)
3(27 28 20)
3(28 29 30)
3(31 32 33)
3(31 32 34)
3(34 35 36)
3(25 37 38)
3(20 29 39)
3(30 26 39)
3(40 15 16)
3(22 41 42)
3(39 43 44)
)

// featurePointNormals

52
(
4(158 159 160 151)
4(171 146 173 180)
3(56 64 65)
10(46 1 49 52 53 103 104 0 2 4)
4(6 7 1 5)
3(49 60 62)
4(6 7 66 5)
3(6 7 67)
4(151 152 160 203)
4(71 97 73 96)

15
(
135
136
137
138
140
141
146
147
165
166
180
74
75
76
78
)

5(135 136 177 179 181)
5(141 146 171 172 184)
4(140 141 167 184)
6(116 150 217 79 108 119)
3(74 83 84)
5(142 143 174 176 145)
5(177 178 179 89 90)
4(12 13 76 11)
2(77 78)
5(144 145 182 142 183)
4(185 8 9 10)
4(148 8 9 10)
4(148 9 82 85)
4(12 13 86 11)
3(12 13 87)
5(188 189 91 111 131)
6(151 152 190 191 159 14)
5(94 194 99 105 107)
4(98 195 122 232)
3(202 40 17)
4(18 44 109 133)
5(28 19 18 20 27)
7(19 29 18 44 43 20 39)
6(214 215 261 262 110 119)
3(114 149 112)
5(208 41 21 22 42)
8(26 37 208 247 248 30 33 39)
4(209 210 22 21)
4(153 154 113 131)
6(155 156 157 218 226 225)
4(157 156 223 227)
5(155 156 223 255 256)
6(26 37 233 234 24 25)
9(25 24 26 27 28 20 29 30 39)
3(153 154 235)
4(19 29 28 30)
6(124 243 249 250 262 128)
7(34 134 249 250 251 252 35)
3(35 132 31)
3(34 134 33)
4(25 22 37 38)
)

// featurePointEdges

52
(
3(24 25 98)
3(35 36 42)
4(113 122 123 124)
10(211 213 101 103 105 108 109 110 168 169)
3(214 20 103)
4(105 117 119 120)
3(214 21 125)
4(20 21 126 127)
3(25 60 15)
5(26 131 133 161 162)

13
(
29
0
30
41
1
42
4
7
8
134
135
136
138
)

3(0 40 43)
4(34 35 47 7)
3(31 4 47)
6(12 70 139 173 183 186)
4(134 143 144 145)
3(38 5 45)
4(39 40 154 155)
3(216 23 136)
3(3 137 138)
4(44 45 6 46)
3(48 215 146)
4(9 10 215 149)
5(10 142 146 147 148)
3(216 22 150)
4(22 23 151 152)
5(50 156 177 178 204)
5(51 217 98 15 230)
6(53 58 159 164 170 172)
4(54 80 163 189)
3(59 218 230)
3(61 174 209)
3(219 222 84)
6(219 61 13 228 232 206)
6(68 99 175 176 186 208)
3(11 179 181)
3(64 220 231)
7(64 91 229 17 232 203 207)
3(65 220 205)
4(66 16 180 204)
4(71 76 18 19)
3(74 77 19)
3(74 95 18)
4(81 221 227 17)
6(221 222 223 228 229 202)
3(82 83 16)
4(84 223 13 203)
5(88 92 99 191 195)
5(92 93 226 14 200)
4(225 226 201 208)
5(224 225 14 207 210)
4(227 231 202 205)
)

// regionEdges

133
(
211
212
213
214
215
216
217
218
219
220
221
222
223
224
225
226
227
228
229
230
231
232
100
101
102
103
104
105
106
107
108
109
110
111
112
113
114
115
116
117
118
119
120
121
122
123
124
125
126
127
128
129
130
131
132
133
134
135
136
137
138
139
140
141
142
143
144
145
146
147
148
149
150
151
152
153
154
155
156
157
158
159
160
161
162
163
164
165
166
167
168
169
170
171
172
173
174
175
176
177
178
179
180
181
182
183
184
185
186
187
188
189
190
191
192
193
194
195
196
197
198
199
200
201
202
203
204
205
206
207
208
209
210
)



// ************************************************************************* //
