/*--------------------------------*- C++ -*----------------------------------*\
| =========                 |                                                 |
| \\      /  F ield         | OpenFOAM: The Open Source CFD Toolbox           |
|  \\    /   O peration     | Version:  2.2.x                                 |
|   \\  /    A nd           | Web:      www.OpenFOAM.org                      |
|    \\/     M anipulation  |                                                 |
\*---------------------------------------------------------------------------*/
FoamFile
{
    version     2.0;
    format      ascii;
    class       extendedFeatureEdgeMesh;
    location    "constant/extendedFeatureEdgeMesh";
    object      lowerleg_left_front.extendedFeatureEdgeMesh;
}
// * * * * * * * * * * * * * * * * * * * * * * * * * * * * * * * * * * * * * //

// points

112
(
(1.91227 3.5003 0.411602)
(1.89788 3.50666 0.340816)
(1.87969 3.51852 0.342658)
(1.93178 3.55436 0.0916016)
(1.95503 3.52477 0.536602)
(1.95961 3.53693 0.536602)
(1.96118 3.54504 0.536602)
(1.96143 3.55753 0.411602)
(1.92512 3.50843 0.250999)
(1.91218 3.50606 0.251007)
(1.89715 3.503 0.411602)
(1.88738 3.53171 0.0916016)
(1.89988 3.5164 0.0916016)
(1.87522 3.52409 0.343261)
(1.89775 3.50619 0.348841)
(1.89808 3.50689 0.330839)
(1.8978 3.50639 0.345532)
(1.89783 3.50652 0.343464)
(1.89784 3.50653 0.343257)
(1.89785 3.50657 0.342686)
(1.89786 3.5066 0.342063)
(1.88508 3.51356 0.342688)
(1.91251 3.50407 0.34206)
(1.88485 3.54033 0.0916016)
(1.95043 3.55825 0.251261)
(1.93897 3.50794 0.411602)
(1.96177 3.54585 0.411602)
(1.9218 3.52095 0.0916016)
(1.92147 3.52068 0.0916016)
(1.92593 3.52646 0.0916016)
(1.92892 3.53277 0.0916016)
(1.93132 3.54318 0.0916016)
(1.93165 3.54566 0.0916016)
(1.92245 3.52181 0.0916016)
(1.9252 3.52549 0.0916016)
(1.92905 3.53324 0.0916016)
(1.9264 3.52744 0.0916016)
(1.86951 3.52712 0.536602)
(1.90479 3.501 0.536602)
(1.88418 3.50989 0.536602)
(1.86539 3.53812 0.536602)
(1.93161 3.55431 0.0916016)
(1.95954 3.56574 0.536602)
(1.96137 3.5533 0.536602)
(1.88525 3.54045 0.0916016)
(1.95878 3.5327 0.536602)
(1.93646 3.50644 0.411602)
(1.92821 3.50282 0.411602)
(1.95482 3.52427 0.411602)
(1.94371 3.51136 0.411602)
(1.96097 3.54024 0.411602)
(1.95485 3.52432 0.411602)
(1.96198 3.54915 0.536602)
(1.87522 3.52408 0.343468)
(1.8752 3.52406 0.343882)
(1.87514 3.52398 0.345536)
(1.87479 3.52347 0.355463)
(1.87432 3.5228 0.368699)
(1.87502 3.52381 0.348845)
(1.88057 3.52676 0.217357)
(1.92782 3.50469 0.372028)
(1.92782 3.50469 0.372002)
(1.87807 3.52514 0.280311)
(1.92007 3.50465 0.342682)
(1.92006 3.50469 0.342059)
(1.92006 3.50475 0.340813)
(1.94791 3.51523 0.411602)
(1.93085 3.53965 0.0916016)
(1.92799 3.53079 0.0916016)
(1.9595 3.53462 0.411602)
(1.89783 3.50649 0.343878)
(1.91251 3.50413 0.340814)
(1.91257 3.50432 0.330832)
(1.89918 3.50872 0.251027)
(1.88513 3.51366 0.340819)
(1.89117 3.50955 0.342687)
(1.89116 3.50952 0.343259)
(1.89115 3.5095 0.343465)
(1.88507 3.51353 0.34326)
(1.96078 3.55733 0.536602)
(1.94365 3.51142 0.536602)
(1.94993 3.5176 0.536602)
(1.92821 3.50282 0.536602)
(1.93635 3.50642 0.536602)
(1.96142 3.55759 0.412566)
(1.91876 3.5066 0.251)
(1.91694 3.51696 0.0916016)
(1.91297 3.51512 0.0916016)
(1.89744 3.50501 0.368696)
(1.8926 3.52262 0.0916016)
(1.90872 3.51433 0.0916016)
(1.90423 3.51475 0.0916016)
(1.91243 3.5024 0.368694)
(1.89754 3.5054 0.362078)
(1.91249 3.50365 0.348839)
(1.9125 3.50386 0.34553)
(1.9125 3.50396 0.343875)
(1.9125 3.50399 0.343462)
(1.9125 3.504 0.343255)
(1.91245 3.50282 0.362076)
(1.91251 3.50404 0.342683)
(1.89599 3.5191 0.0916016)
(1.89121 3.50965 0.340818)
(1.87702 3.53696 0.217394)
(1.86638 3.53463 0.411602)
(1.93182 3.54692 0.0916016)
(1.95747 3.55963 0.331331)
(1.95774 3.54839 0.331371)
(1.93151 3.5446 0.0916016)
(1.91634 3.50042 0.536602)
(1.87591 3.51761 0.536602)
(1.89394 3.50425 0.536602)
)

// edges

145
(
(8 9)
(12 8)
(70 16)
(17 70)
(18 17)
(21 13)
(22 71)
(72 9)
(73 15)
(71 72)
(74 13)
(75 18)
(76 21)
(77 78)
(21 75)
(24 26)
(79 42)
(43 79)
(44 41)
(40 42)
(34 33)
(30 36)
(39 38)
(37 39)
(41 32)
(80 81)
(5 6)
(82 83)
(83 80)
(81 4)
(84 7)
(85 8)
(9 85)
(86 87)
(10 88)
(89 11)
(90 91)
(91 12)
(92 0)
(14 93)
(94 95)
(95 96)
(97 98)
(99 94)
(96 97)
(98 100)
(20 1)
(1 15)
(0 22)
(9 0)
(73 10)
(87 90)
(74 2)
(12 101)
(100 22)
(93 88)
(92 99)
(101 89)
(2 21)
(13 2)
(102 1)
(20 102)
(17 77)
(78 76)
(103 104)
(23 103)
(3 105)
(24 3)
(106 24)
(28 86)
(107 26)
(7 106)
(108 31)
(32 108)
(105 32)
(29 27)
(30 29)
(109 82)
(38 109)
(37 110)
(111 38)
(39 111)
(110 39)
(40 37)
(104 40)
(3 41)
(42 84)
(4 45)
(46 47)
(48 49)
(50 51)
(45 5)
(6 52)
(7 50)
(49 46)
(53 54)
(54 55)
(56 57)
(58 56)
(11 59)
(55 58)
(60 61)
(13 53)
(10 14)
(16 10)
(59 62)
(63 64)
(8 63)
(62 13)
(65 8)
(64 65)
(14 16)
(11 23)
(57 13)
(13 11)
(27 28)
(26 7)
(25 60)
(47 25)
(25 66)
(31 67)
(33 27)
(29 34)
(61 25)
(35 30)
(67 35)
(66 48)
(36 29)
(30 68)
(69 26)
(51 69)
(4 5)
(6 43)
(11 44)
(33 28)
(36 34)
(35 68)
(31 35)
(52 43)
(44 23)
(15 18)
(15 19)
(19 18)
(15 20)
(20 19)
)

// concaveStart mixedStart nonFeatureStart
0 4 45
// internalStart flatStart openStart multipleStart
25 87 87 140
// normals

185
(
(0.989008 0.145919 0.0239074)
(0.990193 0.137681 0.0236962)
(-0.990193 -0.137681 -0.0236962)
(0.988937 0.146397 0.0239063)
(-0.988937 -0.146397 -0.0239063)
(-0.988937 -0.146397 -0.0239063)
(0.40707 0.911376 0.0607171)
(-0.992615 -0.119047 -0.0232848)
(0.407406 0.911502 0.0564289)
(-0.903842 0.42775 0.00999091)
(-0.402488 0.915425 0)
(-0.757965 0.652274 0.00516444)
(-0.933378 0.358895 6.68331e-05)
(-0.981585 0.190941 -0.00565073)
(-0.981586 0.190938 -0.00565001)
(-0.999625 0.0266593 0.00620089)
(-0.561373 0.827562 -0.000649327)
(0.730226 0.680473 0.0610381)
(0.730172 0.680574 0.0605634)
(0.727104 0.683844 0.0606491)
(0.729592 0.681194 0.0605866)
(0.865294 0.496846 0.0664017)
(0.730024 0.680711 0.0608108)
(-0.231021 0.97229 0.0358035)
(0.730346 0.68063 0.0577637)
(-0.827971 0.560394 0.020556)
(0.886129 0.462293 0.0325801)
(0.722811 0.689483 0.0464348)
(-0.0811342 0.995193 0.0548409)
(-0.220708 0.974938 0.0280149)
(0.729631 0.682398 0.0444041)
(-0.36337 0.931476 0.0177461)
(-0.0811259 0.995575 0.0474301)
(0.406183 0.911703 0.0617567)
(0.957465 0.28061 0.0672137)
(0.860383 0.506519 0.0563891)
(0.811294 0.581872 0.0568071)
(-0.632642 0.770929 0.0737085)
(-0.998401 -0.0290644 0.048492)
(-0.429073 0.902048 0.0469713)
(-0.631536 0.773497 0.0535216)
(-0.984526 0.130642 0.116792)
(0 0 1)
(0 0 1)
(-0.475016 0.877798 0.0618923)
(-0.959011 0.261854 0.108303)
(-0.956934 0.269439 0.108069)
(-0.79307 0.606153 0.0601601)
(0 0 1)
(0 0 -1)
(-0.978683 0.197744 0.0554764)
(-0.909212 0.410926 0.0668833)
(0 0 1)
(0 0 1)
(0 0 -1)
(0 0 -1)
(0 0 -1)
(0 0 -1)
(0 0 -1)
(-0.989299 -0.145801 -0.0054047)
(-0.28625 0.958102 0.0100727)
(0.00122528 -0.0032624 0.999994)
(-0.179867 0.980632 0.0775147)
(0.355044 0.934802 -0.00946201)
(0.98866 0.14824 0.0240166)
(0.406641 0.911492 0.0618445)
(0.994713 0.100155 0.0226909)
(0.4068 0.911413 0.061966)
(-0.406799 -0.911354 -0.062835)
(0.730318 0.680604 0.0584181)
(0.344077 0.369126 -0.863341)
(-0.996167 -0.087099 -0.00810548)
(-0.0811652 0.99556 0.0476754)
(-0.955783 0.293864 0.0110617)
(-0.0803162 0.996526 0.0220286)
(0.996321 0.0842585 0.0156542)
(0.453465 0.890874 0.0267039)
(-0.99669 -0.0809292 -0.00777325)
(-0.0812073 0.996519 0.0188463)
(0.593421 0.400023 0.698451)
(-0.406775 -0.9113 -0.0637648)
(0.549227 0.833287 0.0631065)
(-0.549363 -0.833299 -0.0617478)
(0.54905 0.833245 0.0651682)
(-0.549307 -0.833409 -0.0607624)
(0.549417 0.833382 0.060136)
(-0.980456 0.178309 0.0831431)
(-0.912012 -0.408841 0.032898)
(0 0 1)
(-0.989297 -0.145813 -0.00540496)
(-0.989298 -0.145809 -0.00540495)
(-0.286356 0.95807 0.0101197)
(-0.280798 0.957416 -0.0671345)
(0 0 1)
(-0.701409 0.712759 -0.000667314)
(0 0 1)
(-0.981583 0.19095 -0.00565047)
(0 0 1)
(-0.405063 0.914289 -0.000203093)
(0 0 1)
(-0.56481 0.825221 -0.000358659)
(0 0 1)
(-0.8149 0.5796 -0.000900477)
(0 0 1)
(-0.989247 -0.146153 -0.0054289)
(-0.280904 0.957379 -0.067222)
(-0.276615 0.960667 0.0245549)
(-0.0821024 0.996377 0.0222021)
(-0.419501 0.905056 0.0699492)
(0 0 -1)
(0.405553 0.91293 0.0456744)
(-0.813188 0.581596 0.0217052)
(0 0 -1)
(0.0921846 0.995366 0.0273765)
(0 0 -1)
(0 0 -1)
(-0.0769583 0.995851 0.0485647)
(0.997754 0.0666162 0.00703531)
(0.405543 0.912056 0.0607381)
(0.996679 0.0810617 0.00779158)
(-0.080778 0.99478 0.0623525)
(0.993939 0.109537 0.00931649)
(-0.0810516 0.994761 0.0622977)
(0.938311 0.3451 0.0218827)
(-0.0811024 0.994708 0.0630742)
(0.99744 0.0711417 0.00726444)
(-0.0784239 0.994971 0.0623075)
(0.992033 0.125563 0.010177)
(-0.0810645 0.994759 0.062317)
(0.999554 -0.0298133 0.00177734)
(-0.080979 0.99499 0.0586232)
(-0.408018 -0.911548 -0.0509979)
(0.412868 0.910323 0.0291847)
(0.997567 0.0693458 0.00714728)
(0.175485 0.983853 0.0351852)
(0.200532 0.978972 0.0374375)
(-0.181432 0.981863 0.05503)
(0 0 -1)
(0.675342 0.73553 0.0539363)
(0.568516 0.822208 0.0276258)
(0 0 -1)
(-0.0812029 0.995138 0.0557275)
(0.40514 0.912271 0.0602013)
(-0.0768989 0.995098 0.0621885)
(0.720412 0.692005 0.0462165)
(0 0 -1)
(0.675424 0.735173 0.0576489)
(0.408328 0.912249 0.0327197)
(0.407457 0.911617 0.0541631)
(-0.406757 -0.911316 -0.0636482)
(0.949342 0.309259 0.0557572)
(-0.276917 0.960887 -0.00364938)
(0.958278 0.277859 0.0670671)
(-0.281932 0.9594 0.00815352)
(-0.993229 -0.0044041 0.11609)
(0 0 1)
(-0.286735 0.957956 0.0101671)
(-0.259632 0.965688 0.00611918)
(-0.632836 0.770771 0.0737007)
(0 0 -1)
(-0.233995 0.971532 0.0370326)
(-0.984532 0.130601 0.116795)
(0 0 -1)
(-0.984535 0.130577 0.116796)
(0 0 -1)
(-0.984525 0.130648 0.116794)
(-0.796911 0.597244 0.0907332)
(0 0 -1)
(-0.899059 0.426208 0.100202)
(-0.197904 0.980221 0)
(0 0 1)
(0.0499616 0.998748 -0.00259525)
(0 0 1)
(0.829789 0.558071 -0.00250487)
(0 0 -1)
(0.287384 0.957813 -0.00225983)
(0 0 -1)
(0.500173 0.865925 0.000465277)
(0.682293 0.731078 -0.000420506)
(0.936348 0.351065 -0.00237123)
(0 -0 1)
(-0.234057 0.971791 -0.0289896)
(0 0 1)
(0 0 1)
(0 -0 1)
)

// edgeNormals

145
(
2(61 62)
2(63 62)
2(64 65)
2(66 67)
2(0 68)
2(69 70)
2(71 72)
2(73 74)
2(75 76)
2(77 78)
2(79 30)
2(6 80)
2(81 82)
2(83 84)
2(85 82)
2(86 87)
2(88 89)
2(53 90)
2(54 91)
2(92 93)
2(43 167)
2(48 49)
2(176 182)
2(174 183)
2(184 164)
2(94 95)
2(96 97)
2(98 99)
2(100 101)
2(102 103)
2(104 105)
2(61 106)
2(61 107)
2(108 109)
2(110 111)
2(21 112)
2(113 114)
2(63 115)
2(116 117)
2(25 118)
2(119 120)
2(121 122)
2(123 124)
2(125 126)
2(127 128)
2(129 130)
2(7 131)
2(7 132)
2(71 133)
2(73 134)
2(135 75)
2(136 137)
2(138 79)
2(139 140)
2(133 141)
2(111 142)
2(117 143)
2(144 145)
2(146 70)
2(79 70)
2(131 147)
2(131 148)
2(67 149)
2(81 84)
2(150 151)
2(152 153)
2(154 155)
2(154 156)
2(86 157)
2(158 159)
2(87 50)
2(38 160)
2(161 162)
2(163 164)
2(165 155)
2(166 42)
2(168 48)
2(169 170)
2(171 172)
2(173 174)
2(175 176)
2(177 176)
2(178 174)
2(179 180)
2(179 181)
2(184 156)
2(89 92)
1(9)
1(10)
1(11)
1(12)
1(13)
1(14)
1(15)
1(16)
1(17)
1(18)
1(19)
1(20)
1(21)
1(22)
1(23)
1(24)
1(25)
1(26)
1(27)
1(28)
1(29)
1(30)
1(31)
1(32)
1(33)
1(34)
1(35)
1(36)
1(37)
1(38)
1(39)
1(39)
1(40)
1(41)
1(42)
1(43)
1(44)
1(45)
1(46)
1(47)
1(48)
1(49)
1(50)
1(51)
1(52)
1(53)
1(54)
1(55)
1(56)
1(57)
1(58)
1(59)
1(60)
3(0 1 2)
5(1 3 2 4 5)
3(1 2 6)
4(3 4 5 7)
4(3 4 5 8)
)

// featurePointNormals

45
(
6(116 117 71 133 73 134)
4(7 131 132 147)
4(138 79 146 70)
3(154 155 156)
3(102 103 9)
2(96 97)
2(96 97)
5(104 105 38 160 15)
6(61 62 63 106 29 31)
6(61 62 73 74 107 134)
6(110 111 135 75 25 26)
4(21 112 34 36)
4(63 62 115 139)
6(69 70 79 30 35 36)
2(25 118)
8(75 76 7 132 0 1 2 4)
3(64 65 26)
4(66 67 0 68)
5(0 68 6 1 2)
6(1 3 2 4 6 8)
6(7 131 148 3 4 8)
6(69 70 81 82 85 146)
4(71 72 133 141)
4(152 153 34 60)
5(86 87 154 156 157)
3(39 40 44)
4(86 87 50 38)
3(166 42 37)
2(158 159)
3(166 42 168)
4(48 49 168 45)
2(161 162)
3(184 164 163)
2(43 167)
2(43 167)
3(45 46 57)
2(48 49)
4(174 183 173 179)
4(176 182 171 175)
4(176 182 177 178)
4(92 93 179 181)
3(54 91 184)
3(88 89 92)
2(53 90)
2(54 91)
)

// featurePointEdges

45
(
3(38 48 49)
3(46 47 60)
3(52 58 59)
3(66 67 85)
3(29 87 131)
3(26 91 131)
3(26 92 132)
4(30 71 93 116)
5(0 31 1 107 109)
4(0 32 49 7)
4(34 50 103 104)
5(35 99 112 114 133)
3(1 37 53)
7(5 10 59 102 108 113 114)
3(39 103 111)
5(140 141 143 47 8)
3(2 104 111)
3(3 4 62)
4(140 4 142 11)
3(141 142 144)
4(143 144 46 61)
4(5 58 12 14)
3(48 6 54)
3(65 112 139)
3(67 15 68)
4(117 118 119 123)
4(15 70 116 129)
3(75 115 121)
3(69 115 134)
4(75 76 122 127)
4(76 21 124 128)
3(72 120 137)
3(73 74 24)
3(20 121 134)
3(20 122 135)
4(124 125 136 137)
3(21 127 135)
3(79 83 23)
3(78 80 22)
4(81 82 22 23)
3(83 84 19)
3(24 85 18)
3(16 86 19)
3(17 132 138)
3(18 133 139)
)

// regionEdges

58
(
140
141
142
143
144
87
88
89
90
91
92
93
94
95
96
97
98
99
100
101
102
103
104
105
106
107
108
109
110
111
112
113
114
115
116
117
118
119
120
121
122
123
124
125
126
127
128
129
130
131
132
133
134
135
136
137
138
139
)



// ************************************************************************* //
