/*--------------------------------*- C++ -*----------------------------------*\
| =========                 |                                                 |
| \\      /  F ield         | OpenFOAM: The Open Source CFD Toolbox           |
|  \\    /   O peration     | Version:  2.2.x                                 |
|   \\  /    A nd           | Web:      www.OpenFOAM.org                      |
|    \\/     M anipulation  |                                                 |
\*---------------------------------------------------------------------------*/
FoamFile
{
    version     2.0;
    format      ascii;
    class       extendedFeatureEdgeMesh;
    location    "constant/extendedFeatureEdgeMesh";
    object      lowerleg_right_back.extendedFeatureEdgeMesh;
}
// * * * * * * * * * * * * * * * * * * * * * * * * * * * * * * * * * * * * * //

// points

315
(
(1.73118 3.57369 0.536231)
(1.73233 3.5708 0.411715)
(1.73297 3.56902 0.412197)
(1.73564 3.55712 0.458716)
(1.73564 3.55709 0.454503)
(1.73565 3.55706 0.454386)
(1.73564 3.55709 0.458787)
(1.67154 3.56894 0.0916016)
(1.66822 3.55454 0.0916016)
(1.63859 3.55766 0.411602)
(1.63857 3.55753 0.411602)
(1.64957 3.55825 0.251261)
(1.64731 3.57952 0.411602)
(1.68708 3.60032 0.411602)
(1.69208 3.58632 0.0916016)
(1.68708 3.60032 0.536602)
(1.63853 3.55747 0.536602)
(1.73509 3.56035 0.411602)
(1.73225 3.56972 0.411602)
(1.71551 3.55811 0.0916016)
(1.7323 3.56959 0.411602)
(1.73565 3.55704 0.458871)
(1.73565 3.55698 0.459005)
(1.70151 3.59812 0.536602)
(1.71524 3.59125 0.411602)
(1.72611 3.58054 0.45569)
(1.72613 3.58053 0.455724)
(1.71521 3.59127 0.536602)
(1.72366 3.58359 0.536602)
(1.71364 3.59236 0.536602)
(1.71455 3.59174 0.536602)
(1.70693 3.59606 0.536602)
(1.70605 3.59644 0.536602)
(1.70622 3.59637 0.536602)
(1.7261 3.58056 0.411602)
(1.71036 3.59433 0.536602)
(1.73129 3.57344 0.536184)
(1.7295 3.57536 0.536602)
(1.72786 3.57804 0.536602)
(1.73161 3.57254 0.53568)
(1.73225 3.56972 0.536602)
(1.72698 3.57934 0.536602)
(1.72775 3.57821 0.536602)
(1.73227 3.56967 0.536602)
(1.73509 3.56035 0.536602)
(1.73507 3.56045 0.536602)
(1.73563 3.55714 0.468176)
(1.73562 3.55716 0.463886)
(1.73563 3.55713 0.463772)
(1.73562 3.55717 0.474096)
(1.73559 3.55742 0.464839)
(1.73561 3.55721 0.530435)
(1.73561 3.55721 0.52111)
(1.73555 3.55762 0.520504)
(1.73556 3.55755 0.523297)
(1.73562 3.55717 0.474945)
(1.73563 3.55715 0.474886)
(1.73562 3.55716 0.45886)
(1.73562 3.55716 0.457006)
(1.73563 3.5572 0.454837)
(1.73561 3.55731 0.459484)
(1.73557 3.55749 0.535256)
(1.7356 3.55725 0.535278)
(1.7356 3.55725 0.535448)
(1.73556 3.55753 0.533651)
(1.73559 3.55731 0.53304)
(1.7356 3.55728 0.533962)
(1.73555 3.5576 0.529791)
(1.73561 3.55722 0.536602)
(1.73554 3.55772 0.501032)
(1.73554 3.55769 0.517717)
(1.73563 3.55715 0.454725)
(1.73563 3.55715 0.454028)
(1.73564 3.55711 0.454621)
(1.73563 3.55719 0.45353)
(1.73564 3.55711 0.453609)
(1.73563 3.55715 0.452895)
(1.73564 3.55711 0.453041)
(1.73563 3.55715 0.453256)
(1.73562 3.55722 0.452649)
(1.73563 3.55715 0.453566)
(1.73558 3.55738 0.530159)
(1.73554 3.55769 0.520407)
(1.73561 3.55719 0.500583)
(1.73562 3.55718 0.500934)
(1.73562 3.55716 0.485278)
(1.73562 3.55716 0.46307)
(1.73562 3.55714 0.4413)
(1.73533 3.5591 0.434951)
(1.73562 3.55714 0.441247)
(1.73562 3.55715 0.44616)
(1.73563 3.55715 0.44938)
(1.73552 3.55785 0.446502)
(1.73562 3.55715 0.449295)
(1.73563 3.55715 0.451106)
(1.73561 3.55732 0.451526)
(1.73563 3.55715 0.452231)
(1.73563 3.55715 0.452737)
(1.73562 3.55715 0.446232)
(1.73544 3.55838 0.441557)
(1.73558 3.55751 0.449665)
(1.73521 3.55987 0.427807)
(1.73563 3.55715 0.451201)
(1.73563 3.55715 0.452119)
(1.73562 3.55714 0.434719)
(1.73563 3.55712 0.427651)
(1.73563 3.55711 0.434781)
(1.73207 3.57147 0.411725)
(1.73089 3.57403 0.411717)
(1.7347 3.56262 0.418573)
(1.73223 3.57106 0.411775)
(1.72875 3.57699 0.412214)
(1.73161 3.5726 0.411693)
(1.73134 3.57321 0.411682)
(1.73476 3.56034 0.411602)
(1.72862 3.57716 0.412186)
(1.72787 3.57819 0.412428)
(1.72867 3.57711 0.412196)
(1.72858 3.57723 0.412176)
(1.72781 3.57826 0.412002)
(1.72802 3.57797 0.412051)
(1.72642 3.58013 0.411678)
(1.72773 3.57837 0.411984)
(1.73546 3.55823 0.501181)
(1.73547 3.55811 0.501146)
(1.73551 3.55796 0.477104)
(1.73546 3.55819 0.497892)
(1.73521 3.55964 0.437339)
(1.73501 3.56078 0.430189)
(1.73518 3.55982 0.432897)
(1.73519 3.55977 0.434979)
(1.73519 3.55972 0.436863)
(1.73519 3.55971 0.437142)
(1.73519 3.55971 0.43709)
(1.73444 3.56337 0.423922)
(1.73518 3.55985 0.431812)
(1.73563 3.55705 0.501509)
(1.73564 3.55701 0.521492)
(1.73564 3.55698 0.530613)
(1.73564 3.55711 0.463926)
(1.73564 3.55708 0.464079)
(1.73564 3.55711 0.441402)
(1.73564 3.55711 0.446371)
(1.73564 3.55711 0.449542)
(1.73564 3.55711 0.451376)
(1.73561 3.55722 0.535471)
(1.73564 3.55711 0.452406)
(1.73561 3.5572 0.517014)
(1.73561 3.5572 0.515976)
(1.73561 3.55722 0.534047)
(1.73536 3.55762 0.536602)
(1.7354 3.55722 0.536602)
(1.66839 3.55455 0.0916016)
(1.73564 3.5571 0.458752)
(1.7261 3.58056 0.458324)
(1.7261 3.58056 0.455656)
(1.72612 3.58054 0.458491)
(1.73561 3.55721 0.521173)
(1.73557 3.55757 0.47602)
(1.73483 3.56183 0.423551)
(1.73563 3.5571 0.475255)
(1.73539 3.55733 0.536602)
(1.65517 3.57708 0.251214)
(1.64169 3.56917 0.411602)
(1.66238 3.57295 0.171326)
(1.65486 3.58798 0.411602)
(1.67538 3.59888 0.411602)
(1.68808 3.58699 0.107665)
(1.69008 3.5916 0.171585)
(1.66447 3.59467 0.411602)
(1.68891 3.58601 0.0916016)
(1.68579 3.58506 0.0916016)
(1.68794 3.59709 0.251498)
(1.67516 3.57587 0.0916016)
(1.67996 3.5814 0.0916016)
(1.64429 3.57469 0.411602)
(1.65516 3.58824 0.411602)
(1.66211 3.59333 0.411602)
(1.64916 3.58198 0.411602)
(1.66986 3.59713 0.411602)
(1.67824 3.5995 0.411602)
(1.6407 3.56647 0.411602)
(1.70622 3.59637 0.411602)
(1.697 3.5993 0.411602)
(1.71455 3.59174 0.411602)
(1.72179 3.58562 0.411602)
(1.72775 3.57821 0.411602)
(1.73565 3.55701 0.454154)
(1.70153 3.59812 0.411602)
(1.72592 3.5808 0.536602)
(1.72578 3.58099 0.536602)
(1.72607 3.58061 0.536602)
(1.72548 3.58137 0.536602)
(1.71822 3.58893 0.536602)
(1.71749 3.58954 0.536602)
(1.71674 3.59013 0.536602)
(1.72104 3.58636 0.536602)
(1.71966 3.58767 0.536602)
(1.72489 3.58212 0.536602)
(1.72579 3.58096 0.451795)
(1.7261 3.58056 0.416222)
(1.70867 3.59523 0.536602)
(1.7112 3.59386 0.536602)
(1.71283 3.59287 0.536602)
(1.7261 3.58056 0.414042)
(1.71202 3.59338 0.536602)
(1.73433 3.5636 0.536602)
(1.73339 3.56668 0.536602)
(1.72612 3.58053 0.536602)
(1.72609 3.58057 0.536602)
(1.72618 3.58045 0.536602)
(1.7263 3.5803 0.536602)
(1.72653 3.57998 0.536602)
(1.72808 3.57791 0.523042)
(1.73562 3.55712 0.411602)
(1.73143 3.57303 0.411681)
(1.73151 3.57283 0.411685)
(1.73157 3.57271 0.411728)
(1.72627 3.58034 0.41168)
(1.72627 3.58034 0.411641)
(1.73565 3.55705 0.453313)
(1.73574 3.55627 0.535598)
(1.73571 3.55648 0.535854)
(1.73568 3.55671 0.536106)
(1.73576 3.55611 0.533683)
(1.73573 3.5563 0.534331)
(1.73573 3.55635 0.531088)
(1.73564 3.55696 0.536356)
(1.73576 3.55608 0.53534)
(1.73565 3.55694 0.476336)
(1.73568 3.55668 0.503126)
(1.73566 3.55681 0.521856)
(1.73565 3.55692 0.502065)
(1.73566 3.55692 0.464987)
(1.73565 3.55703 0.464383)
(1.93178 3.55436 0.0916016)
(1.93161 3.55431 0.0916016)
(1.93165 3.54566 0.0916016)
(1.93182 3.54692 0.0916016)
(1.88525 3.54045 0.0916016)
(1.88453 3.54338 0.0916016)
(1.88485 3.54033 0.0916016)
(1.70179 3.59779 0.536602)
(1.697 3.5993 0.536602)
(1.72179 3.58562 0.536602)
(1.67609 3.57718 0.0916016)
(1.67949 3.58097 0.0916016)
(1.68342 3.5839 0.0916016)
(1.68551 3.58495 0.0916016)
(1.68769 3.58572 0.0916016)
(1.68987 3.58617 0.0916016)
(1.73535 3.5577 0.536602)
(1.71786 3.58988 0.529273)
(1.72376 3.5835 0.466508)
(1.70571 3.5965 0.464926)
(1.71408 3.59187 0.441374)
(1.73344 3.56736 0.414977)
(1.72853 3.57729 0.412166)
(1.72848 3.57735 0.412155)
(1.72827 3.57764 0.412107)
(1.72821 3.57772 0.412094)
(1.72843 3.57742 0.412144)
(1.72815 3.5778 0.41208)
(1.72833 3.57756 0.41212)
(1.72809 3.57789 0.412066)
(1.72838 3.57749 0.412132)
(1.72772 3.57839 0.41236)
(1.64253 3.55963 0.331331)
(1.67811 3.59947 0.536602)
(1.66961 3.597 0.536602)
(1.66177 3.59307 0.536602)
(1.65475 3.58782 0.536602)
(1.64874 3.5814 0.536602)
(1.64391 3.57396 0.536602)
(1.69565 3.58594 0.0916016)
(1.7254 3.56 0.251559)
(1.69901 3.58482 0.0916016)
(1.70513 3.58053 0.0916016)
(1.71011 3.57415 0.0916016)
(1.71353 3.56652 0.0916016)
(1.70335 3.59751 0.536602)
(1.72224 3.5854 0.489638)
(1.7208 3.58698 0.503083)
(1.71853 3.58926 0.523462)
(1.72368 3.58368 0.475509)
(1.71952 3.58829 0.514673)
(1.70999 3.59529 0.532167)
(1.70964 3.59531 0.524845)
(1.70426 3.59717 0.536602)
(1.70516 3.59682 0.536602)
(1.70827 3.59564 0.504207)
(1.73537 3.55884 0.536602)
(1.73556 3.55763 0.536602)
(1.7355 3.55803 0.536602)
(1.73558 3.55742 0.536602)
(1.73037 3.57479 0.411828)
(1.72964 3.57579 0.412)
(1.7267 3.57975 0.411744)
(1.72657 3.57993 0.411712)
(1.73243 3.57052 0.411857)
(1.73173 3.57231 0.411704)
(1.73328 3.56802 0.413226)
(1.73188 3.57195 0.411716)
(1.72871 3.57705 0.412205)
(1.72738 3.57884 0.411903)
(1.72748 3.57871 0.411925)
(1.72728 3.57897 0.41188)
(1.72788 3.57816 0.412019)
(1.72795 3.57807 0.412035)
(1.72683 3.57958 0.411774)
(1.72756 3.57859 0.411945)
(1.72695 3.57941 0.411803)
(1.72707 3.57926 0.41183)
(1.72718 3.57911 0.411856)
(1.72765 3.57848 0.411965)
)

// edges

498
(
(20 18)
(252 28)
(27 29)
(253 28)
(254 31)
(31 32)
(35 255)
(255 24)
(38 36)
(39 37)
(107 108)
(109 20)
(20 256)
(111 18)
(20 110)
(118 257)
(257 258)
(259 260)
(258 261)
(260 262)
(263 259)
(262 264)
(264 120)
(265 263)
(261 265)
(119 122)
(266 119)
(117 18)
(19 152)
(11 10)
(129 132)
(132 151)
(130 132)
(150 16)
(8 7)
(10 267)
(267 11)
(268 269)
(270 271)
(269 270)
(272 273)
(15 268)
(271 272)
(273 16)
(14 274)
(275 17)
(276 277)
(274 276)
(277 278)
(279 19)
(19 275)
(278 279)
(280 23)
(281 282)
(283 252)
(284 253)
(282 285)
(285 283)
(284 281)
(31 286)
(286 287)
(288 280)
(32 289)
(287 290)
(289 288)
(290 254)
(24 35)
(36 37)
(36 39)
(38 0)
(0 36)
(39 40)
(0 41)
(38 42)
(43 40)
(291 44)
(44 45)
(292 293)
(294 292)
(68 294)
(293 291)
(1 107)
(295 296)
(297 298)
(18 108)
(108 295)
(296 111)
(299 20)
(112 300)
(256 2)
(2 301)
(110 1)
(1 20)
(20 2)
(113 108)
(110 299)
(2 109)
(109 301)
(300 302)
(302 107)
(303 111)
(117 303)
(304 305)
(306 304)
(307 308)
(119 307)
(297 309)
(120 116)
(308 120)
(305 310)
(309 311)
(121 298)
(311 312)
(312 313)
(313 306)
(122 266)
(122 314)
(314 310)
(18 120)
(68 151)
(135 151)
(130 133)
(5 3)
(6 4)
(7 162)
(163 9)
(11 8)
(12 163)
(162 164)
(165 12)
(13 166)
(167 14)
(14 168)
(166 169)
(169 165)
(170 167)
(171 170)
(168 172)
(7 173)
(164 7)
(174 171)
(173 174)
(175 12)
(176 177)
(178 176)
(179 180)
(177 179)
(12 178)
(180 13)
(181 175)
(9 181)
(182 183)
(172 14)
(183 13)
(184 182)
(185 184)
(186 185)
(18 186)
(21 187)
(187 22)
(23 15)
(13 188)
(26 154)
(189 190)
(191 189)
(190 192)
(193 194)
(194 195)
(195 27)
(27 30)
(30 29)
(28 196)
(196 197)
(197 193)
(198 28)
(192 198)
(199 200)
(31 33)
(33 32)
(24 34)
(201 31)
(202 35)
(35 201)
(188 24)
(29 203)
(204 199)
(205 202)
(203 205)
(26 156)
(37 38)
(206 207)
(208 209)
(40 37)
(210 208)
(211 210)
(212 211)
(213 191)
(209 213)
(41 212)
(42 41)
(207 43)
(45 206)
(200 204)
(214 105)
(215 113)
(216 215)
(114 214)
(112 216)
(217 112)
(34 218)
(218 121)
(121 219)
(34 18)
(219 34)
(113 217)
(75 220)
(221 222)
(222 223)
(224 225)
(226 224)
(227 68)
(228 221)
(225 228)
(223 227)
(229 230)
(231 226)
(230 232)
(232 231)
(233 234)
(6 5)
(5 21)
(234 229)
(22 233)
(73 21)
(140 22)
(140 46)
(235 236)
(236 237)
(237 238)
(238 235)
(239 240)
(240 241)
(241 239)
(23 242)
(242 32)
(243 15)
(33 243)
(30 33)
(244 30)
(42 244)
(40 38)
(45 43)
(151 44)
(152 8)
(7 245)
(245 246)
(246 247)
(247 248)
(248 249)
(249 250)
(250 14)
(251 44)
(150 251)
(11 152)
(17 135)
(132 126)
(4 220)
(3 4)
(4 5)
(153 6)
(3 153)
(9 10)
(16 9)
(17 20)
(22 21)
(25 26)
(154 155)
(155 25)
(156 25)
(46 47)
(47 48)
(48 46)
(49 47)
(46 49)
(49 50)
(50 47)
(157 51)
(53 52)
(54 53)
(49 56)
(55 158)
(57 58)
(58 3)
(3 57)
(57 59)
(59 58)
(60 59)
(57 60)
(61 62)
(63 61)
(62 63)
(61 64)
(64 62)
(64 65)
(66 64)
(65 66)
(64 67)
(67 65)
(61 68)
(53 69)
(69 52)
(70 69)
(53 70)
(71 72)
(73 71)
(72 73)
(71 74)
(74 72)
(71 59)
(59 74)
(75 76)
(76 77)
(77 75)
(78 76)
(75 78)
(78 79)
(79 76)
(80 78)
(75 80)
(80 79)
(80 74)
(74 79)
(3 71)
(73 3)
(58 71)
(67 54)
(81 67)
(54 81)
(67 82)
(82 54)
(83 84)
(84 69)
(158 83)
(83 55)
(55 85)
(85 83)
(47 86)
(86 48)
(47 60)
(60 86)
(50 60)
(73 80)
(75 73)
(72 80)
(87 88)
(88 89)
(89 87)
(90 88)
(87 90)
(91 92)
(92 93)
(93 91)
(94 92)
(91 94)
(97 95)
(95 96)
(96 97)
(98 99)
(99 90)
(90 98)
(93 99)
(98 93)
(99 88)
(94 100)
(101 89)
(102 100)
(94 102)
(103 100)
(102 103)
(101 104)
(104 89)
(105 101)
(76 95)
(97 76)
(79 95)
(104 105)
(106 104)
(105 106)
(96 100)
(103 96)
(95 100)
(20 114)
(115 116)
(116 117)
(117 115)
(115 118)
(118 116)
(123 82)
(123 70)
(70 82)
(124 70)
(123 124)
(124 125)
(125 69)
(69 124)
(126 125)
(124 126)
(126 123)
(130 128)
(129 130)
(128 129)
(131 128)
(130 131)
(132 127)
(133 132)
(127 99)
(134 133)
(132 131)
(131 127)
(133 131)
(134 131)
(134 128)
(159 128)
(135 159)
(84 136)
(137 84)
(138 157)
(52 137)
(136 85)
(55 136)
(84 85)
(46 139)
(160 46)
(48 139)
(56 46)
(160 56)
(68 138)
(139 140)
(21 6)
(139 6)
(87 106)
(106 141)
(141 87)
(87 104)
(91 142)
(142 143)
(143 91)
(91 98)
(98 142)
(102 143)
(143 144)
(144 102)
(102 91)
(68 145)
(145 138)
(68 63)
(63 145)
(98 141)
(141 142)
(98 87)
(138 51)
(96 144)
(146 96)
(96 102)
(76 146)
(146 77)
(97 146)
(137 147)
(147 84)
(52 147)
(148 84)
(147 148)
(148 69)
(147 69)
(138 149)
(149 51)
(81 65)
(145 149)
(66 62)
(161 150)
(151 161)
(16 151)
(17 114)
(127 130)
(130 99)
(130 88)
(129 88)
(82 53)
(51 81)
(129 135)
(149 81)
(149 65)
(145 66)
(66 149)
(63 66)
(151 150)
(16 10)
(135 128)
)

// concaveStart mixedStart nonFeatureStart
0 3 153
// internalStart flatStart openStart multipleStart
34 122 122 267
// normals

770
(
(-0.989126 -0.14707 -0.000399886)
(0.986313 0.164881 0.00024708)
(-0.994286 -0.106744 -0.000743865)
(-0.989362 -0.145473 -0.00077569)
(-0.988906 -0.14854 -5.38157e-05)
(0.993701 0.112062 0.000467346)
(0.993672 0.112322 0.00060056)
(-0.993695 -0.112115 -0.000494711)
(0.986293 0.165002 0.000308927)
(-0.986191 -0.165608 -0.000619564)
(0.988375 -0.145242 0.0449494)
(0.989375 -0.145389 0.00021285)
(0.989375 -0.145389 0.00021285)
(0.989375 -0.145389 0.00021285)
(0.989375 -0.145389 0.00021285)
(0.989375 -0.145389 0.00021285)
(0.989375 -0.145389 0.00021285)
(0.972408 -0.233288 7.10983e-05)
(-0.955836 -0.288364 0.0567864)
(0.000181875 5.48696e-05 -1)
(0.000181875 5.48696e-05 -1)
(-0.992845 -0.11941 -0.000520811)
(-0.992935 -0.118658 -0.00014093)
(0.992829 0.119539 0.000585626)
(-0.807419 -0.589979 -0.000191543)
(-0.80775 -0.589525 0.000115063)
(-0.807505 -0.589861 -0.000112082)
(-0.807733 -0.589549 9.88637e-05)
(-0.814337 -0.580392 -0.000287302)
(-0.800732 -0.599022 -0.000252121)
(-0.788762 -0.614698 -0.000221935)
(-0.814701 -0.579882 3.1054e-05)
(-0.814828 -0.579702 0.000142863)
(-0.808787 -0.588102 0.000119104)
(-0.949352 -0.314216 8.21439e-05)
(-0.944589 -0.328255 -7.0917e-07)
(-0.949352 -0.314216 8.21439e-05)
(-0.944589 -0.328255 -7.0917e-07)
(-0.949352 -0.314216 8.21439e-05)
(-0.944589 -0.328255 -7.0917e-07)
(-0.949352 -0.314216 8.21439e-05)
(-0.944589 -0.328255 -7.0917e-07)
(-0.949449 -0.313922 -2.24325e-06)
(-0.949449 -0.313922 -2.24325e-06)
(-0.949449 -0.313922 -2.24325e-06)
(-0.987889 -0.155163 -0.000184236)
(-0.987889 -0.155163 -0.000184236)
(-0.993122 -0.117081 -0.000176481)
(-0.993122 -0.117081 -0.000176481)
(-0.951205 -0.30856 -0.000114103)
(-0.951205 -0.30856 -0.000114103)
(-0.993106 -0.117217 -0.000180153)
(-0.993462 -0.114162 -0.000966849)
(-0.993462 -0.114162 -0.000966849)
(-0.869833 -0.493346 0.000316169)
(-0.990962 -0.134141 -6.94077e-05)
(-0.990962 -0.134141 -6.94077e-05)
(-0.990962 -0.134141 -6.94077e-05)
(-0.988532 -0.151014 1.36799e-05)
(-0.988436 -0.151636 -0.000422354)
(-0.988436 -0.151636 -0.000422354)
(-0.989253 -0.146217 0.000214898)
(-0.996718 -0.0809321 0.00188235)
(-0.00139892 -0.999684 -0.0250789)
(-0.952371 -0.304943 -1.05433e-05)
(-0.991616 -0.129217 -0.000476031)
(-0.991491 -0.130179 -0.000114986)
(-0.991491 -0.130179 -0.000114986)
(-0.991491 -0.130179 -0.000114986)
(-0.991491 -0.130179 -0.000114986)
(-0.950006 -0.31223 -2.43663e-05)
(-0.999717 0.0237937 -0.000342952)
(-0.999717 0.0237937 -0.000342952)
(-0.950006 -0.31223 -2.43663e-05)
(-0.999717 0.0237937 -0.000342952)
(-0.950006 -0.31223 -2.43663e-05)
(-0.950006 -0.31223 -2.43663e-05)
(-0.947358 -0.320177 -0.000195244)
(-0.947358 -0.320177 -0.000195244)
(-0.947358 -0.320177 -0.000195244)
(0.950005 0.312236 2.28735e-05)
(-0.996182 -0.0872856 -0.00150628)
(-0.996182 -0.0872856 -0.00150628)
(-0.996182 -0.0872856 -0.00150628)
(-0.99981 0.019487 -0.000430139)
(-0.99981 0.019487 -0.000430139)
(-0.99981 0.019487 -0.000430139)
(-0.99981 0.019487 -0.000430139)
(-0.988935 -0.148352 5.3564e-06)
(0.995718 0.0924405 0.000213884)
(-0.988193 -0.153212 0.000290203)
(-0.988179 -0.153306 -0.000743423)
(-0.988193 -0.153212 0.000290203)
(-0.988179 -0.153306 -0.000743423)
(-0.988193 -0.153212 0.000290203)
(-0.988179 -0.153306 -0.000743423)
(-0.988226 -0.153 0.000564953)
(-0.988226 -0.153 0.000564953)
(-0.988226 -0.153 0.000564953)
(-0.988226 -0.153 0.000564953)
(-0.988226 -0.153 0.000564953)
(-0.988226 -0.153 0.000564953)
(-0.988226 -0.153 0.000564953)
(-0.988226 -0.153 0.000564953)
(-0.988226 -0.153 0.000564953)
(-0.988226 -0.153 0.000564953)
(-0.988226 -0.153 0.000564953)
(-0.988226 -0.153 0.000564953)
(-0.757702 -0.652465 -0.013293)
(-0.757702 -0.652465 -0.013293)
(-0.757702 -0.652465 -0.013293)
(-0.0036554 -0.999675 -0.0252395)
(-0.985494 -0.169705 -0.00116114)
(-0.989038 -0.147659 0.000250378)
(-0.989038 -0.147659 0.000250378)
(-0.989016 -0.147808 0.000128711)
(-0.989079 -0.147388 -2.86804e-05)
(-0.989016 -0.147808 0.000128711)
(-0.989079 -0.147388 -2.86804e-05)
(-0.989016 -0.147808 0.000128711)
(-0.989079 -0.147388 -2.86804e-05)
(-0.989117 -0.147131 0.000146085)
(-0.989117 -0.147131 0.000146085)
(-0.00299205 -0.999681 -0.0250596)
(-0.987035 -0.160504 -0.000264873)
(-0.989724 -0.142989 0.000375047)
(0.989724 0.142989 -0.000375047)
(0.989724 0.142989 -0.000375047)
(-0.993064 -0.117309 0.0079587)
(-0.985636 -0.168881 -0.000509889)
(-0.985636 -0.168881 -0.000509889)
(-0.989557 -0.144142 -0.000227033)
(-0.989557 -0.144142 -0.000227033)
(-0.989557 -0.144142 -0.000227033)
(-0.989557 -0.144142 -0.000227033)
(-0.989557 -0.144142 -0.000227033)
(-0.985082 -0.172086 -0.000515025)
(-0.996702 -0.081126 0.0017473)
(-0.996702 -0.081126 0.0017473)
(-0.012824 -0.999601 -0.0251823)
(-0.944507 -0.328491 0.000175535)
(-0.997221 0.0745065 -0.000246987)
(-0.944507 -0.328491 0.000175535)
(-0.997221 0.0745065 -0.000246987)
(-0.997221 0.0745065 -0.000246987)
(-0.944507 -0.328491 0.000175535)
(-0.944859 -0.327476 -0.000259434)
(-0.944859 -0.327476 -0.000259434)
(-0.944859 -0.327476 -0.000259434)
(-0.944479 -0.328572 0.000169585)
(-0.944479 -0.328572 0.000169585)
(-0.944479 -0.328572 0.000169585)
(-0.99974 0.0227433 -0.00174045)
(-0.99974 0.0227433 -0.00174045)
(-0.99974 0.0227433 -0.00174045)
(-0.996998 0.0774289 -3.99633e-05)
(-0.996998 0.0774289 -3.99633e-05)
(-0.996998 0.0774289 -3.99633e-05)
(-0.986639 -0.162924 -0.000162655)
(-0.941736 -0.336352 -0.00121262)
(-0.944501 -0.328507 -0.000718254)
(-0.941736 -0.336352 -0.00121262)
(-0.944501 -0.328507 -0.000718254)
(-0.941736 -0.336352 -0.00121262)
(-0.944501 -0.328507 -0.000718254)
(-0.943091 -0.332535 0)
(-0.943091 -0.332535 0)
(-0.943091 -0.332535 0)
(-0.998713 -0.0507089 -0.000955275)
(-0.998713 -0.0507089 -0.000955275)
(-0.948046 -0.318134 0.000609586)
(-0.948046 -0.318134 0.000609586)
(-0.948046 -0.318134 0.000609586)
(-0.999229 -0.0392571 0.000414676)
(-0.999229 -0.0392571 0.000414676)
(-0.999229 -0.0392571 0.000414676)
(-0.999909 -0.00327278 0.0130946)
(-0.999909 -0.00327278 0.0130946)
(-0.948043 -0.318143 0.000600092)
(-0.948043 -0.318143 0.000600092)
(-0.948043 -0.318143 0.000600092)
(-0.996069 0.0879657 0.0104276)
(-0.996069 0.0879657 0.0104276)
(-0.996069 0.0879657 0.0104276)
(-0.983419 -0.181346 -0.000953324)
(-0.989679 -0.143305 0.000182599)
(-0.992778 -0.11997 1.11547e-05)
(0.989679 0.143305 -0.000182599)
(0.992778 0.11997 -1.11547e-05)
(0.989679 0.143305 -0.000182599)
(0.992778 0.11997 -1.11547e-05)
(-0.988541 -0.150951 -1.38301e-05)
(-0.00331667 -0.999679 -0.0251018)
(-0.987766 -0.155942 -0.000339249)
(-0.990031 -0.14084 0.00192953)
(-0.964534 -0.263957 -1.34792e-05)
(-0.964534 -0.263957 -1.34792e-05)
(-0.964534 -0.263957 -1.34792e-05)
(-0.964534 -0.263957 -1.34792e-05)
(-0.964534 -0.263957 -1.34792e-05)
(-0.990084 -0.140476 -0.000112088)
(-0.990084 -0.140476 -0.000112088)
(-0.990084 -0.140476 -0.000112088)
(-0.990084 -0.140476 -0.000112088)
(-0.990084 -0.140476 -0.000112088)
(-0.990288 -0.139032 -0.000253033)
(-0.962074 -0.272787 2.83992e-06)
(-0.962074 -0.272787 2.83992e-06)
(-0.962074 -0.272787 2.83992e-06)
(-0.962074 -0.272787 2.83992e-06)
(-0.995879 -0.0906953 0.000117924)
(-0.995879 -0.0906953 0.000117924)
(-0.995879 -0.0906953 0.000117924)
(-0.995879 -0.0906953 0.000117924)
(-0.995879 -0.0906953 0.000117924)
(-0.995727 -0.092346 -0.000209844)
(-0.995727 -0.092346 -0.000209844)
(0.949196 0.314687 3.70954e-05)
(-0.990033 -0.140833 -0.000442913)
(-0.993837 -0.110849 0.000209088)
(-0.98893 -0.148383 0.000671796)
(-0.988688 -0.149989 0.000166218)
(-0.98893 -0.148383 0.000671796)
(-0.988688 -0.149989 0.000166218)
(-0.989028 -0.147728 0.000879781)
(0.999568 0.0294061 -0.000133134)
(0.999568 0.0294061 -0.000133134)
(0.999568 0.0294061 -0.000133134)
(0.999568 0.0294061 -0.000133134)
(0.999568 0.0294061 -0.000133134)
(-0.989469 -0.144742 0.00109991)
(0.999813 0.0193181 -6.42064e-05)
(0.999813 0.0193181 -6.42064e-05)
(0.999813 0.0193181 -6.42064e-05)
(-0.990747 -0.135707 0.00177395)
(-0.98989 -0.141836 0.00025437)
(0.990747 0.135707 -0.00177395)
(0.98989 0.141836 -0.00025437)
(0.990747 0.135707 -0.00177395)
(0.98989 0.141836 -0.00025437)
(-0.991347 -0.131238 0.00291516)
(0.829887 -0.557932 0.000401936)
(0.829887 -0.557932 0.000401936)
(0.829887 -0.557932 0.000401936)
(-0.99329 -0.115573 0.00431143)
(-0.986394 0.164399 0)
(-0.986394 0.164399 0)
(-0.986394 0.164399 0)
(-0.994004 -0.109344 -0.00018262)
(-0.994267 -0.106923 0.000161394)
(0.994004 0.109344 0.00018262)
(-0.994267 -0.106923 0.000161394)
(-0.997273 -0.0732946 0.00861493)
(-0.997273 -0.0732946 0.00861493)
(-0.942648 -0.333788 -6.47915e-05)
(-0.942648 -0.333788 -6.47915e-05)
(-0.942648 -0.333788 -6.47915e-05)
(-0.989141 -0.146971 0.000488479)
(-0.988956 -0.14821 0.000153834)
(0.989141 0.146971 -0.000488479)
(0.988956 0.14821 -0.000153834)
(-0.979399 -0.201866 -0.00525408)
(-0.979399 -0.201866 -0.00525408)
(-0.979399 -0.201866 -0.00525408)
(-0.991185 -0.132485 -0)
(0.991185 0.132485 0)
(-0.988555 -0.150859 0.000229505)
(-0.988555 -0.150859 0.000229505)
(-0.991455 -0.130448 0.000487691)
(0.991455 0.130448 -0.000487691)
(-0.991274 -0.13182 0.000282497)
(-0.991274 -0.13182 0.000282497)
(0.961589 0.274491 -0.000588248)
(0.961589 0.274491 -0.000588248)
(-0.988378 -0.152018 -0.000239936)
(-0.988378 -0.152018 -0.000239936)
(-0.988372 -0.152054 0.000398686)
(-0.941178 -0.33791 0.000510053)
(-0.941178 -0.33791 0.000510053)
(-0.941178 -0.33791 0.000510053)
(-0.981472 -0.191573 -0.00342692)
(-0.948917 -0.315527 0.000301667)
(-0.948917 -0.315527 0.000301667)
(-0.948917 -0.315527 0.000301667)
(-0.948966 -0.315378 0.00036591)
(-0.948966 -0.315378 0.00036591)
(-0.948966 -0.315378 0.00036591)
(-0.948966 -0.315378 0.00036591)
(-0.948966 -0.315378 0.00036591)
(-0.981045 -0.193741 -0.00394612)
(-0.963686 -0.256581 0.0739947)
(0.802007 0.597208 -0.011283)
(0.804014 0.59458 0.00605884)
(-0.804014 -0.59458 -0.00605884)
(0.802007 0.597208 -0.011283)
(0.802007 0.597208 -0.011283)
(-0.804313 -0.594103 -0.011067)
(0.636605 0.363292 -0.68026)
(0.645183 0.366685 -0.670284)
(0.802811 0.596222 -0.00358234)
(-0.98775 -0.156046 -0.000426605)
(-0.996803 -0.0798761 0.00174914)
(-0.996803 -0.0798761 0.00174914)
(-0.996803 -0.0798761 0.00174914)
(-0.997763 -0.0668219 0.00217682)
(-0.997763 -0.0668219 0.00217682)
(-0.997763 -0.0668219 0.00217682)
(-0.00074854 -0.999685 -0.0250961)
(-0.997763 -0.0668152 0.00215371)
(-0.997763 -0.0668152 0.00215371)
(-0.985083 -0.172077 -0.000547722)
(-0.985084 -0.172074 -0.000547738)
(-0.985083 -0.172077 -0.000547722)
(-0.985084 -0.172074 -0.000547738)
(-0.989897 -0.141791 -0.000235602)
(-0.989158 -0.146855 -0.000835208)
(-0.0166758 -0.999545 -0.0251259)
(-0.998926 -0.046289 0.00191579)
(-0.983027 -0.183446 -0.0024126)
(-0.983074 -0.183192 -0.00235741)
(-0.983074 -0.183192 -0.00235741)
(-0.983027 -0.183446 -0.0024126)
(-0.979389 -0.201961 -0.00289172)
(-0.979389 -0.201961 -0.00289172)
(-0.979389 -0.201961 -0.00289172)
(0.109701 -0.993637 -0.0255161)
(0.983029 0.183434 0.00240829)
(-0.983029 -0.183434 -0.00240829)
(-0.970211 -0.241962 -0.0120188)
(-0.970211 -0.241962 -0.0120188)
(-0.970211 -0.241962 -0.0120188)
(-0.98314 -0.182838 -0.00234824)
(-0.98314 -0.182838 -0.00234824)
(-0.98314 -0.182838 -0.00234824)
(-0.0688267 -0.99731 -0.0251983)
(-0.979233 -0.202664 -0.00554893)
(-0.979185 -0.202889 -0.00562977)
(-0.979185 -0.202889 -0.00562977)
(-0.979185 -0.202889 -0.00562977)
(-0.979185 -0.202889 -0.00562977)
(-0.979185 -0.202889 -0.00562977)
(-0.973976 -0.226566 -0.0062681)
(-0.977482 -0.210937 -0.00583572)
(-0.977482 -0.210937 -0.00583572)
(0.743291 -0.668712 -0.0185004)
(-0.977482 -0.210937 -0.00583572)
(-0.977482 -0.210937 -0.00583572)
(-0.977482 -0.210937 -0.00583572)
(-0.980832 -0.194814 -0.00411974)
(-0.981701 -0.190411 -0.00275424)
(-0.981701 -0.190411 -0.00275424)
(-0.981701 -0.190411 -0.00275424)
(-0.970038 -0.242651 -0.0121272)
(-0.975018 -0.222043 -0.00611462)
(-0.975018 -0.222043 -0.00611462)
(-0.975018 -0.222043 -0.00611462)
(-0.970051 -0.242592 -0.0122945)
(-0.970214 -0.24195 -0.0120754)
(0.983013 0.183517 0.00245763)
(-0.983013 -0.183517 -0.00245763)
(-0.979453 -0.201552 -0.00693561)
(-0.990773 -0.135533 -0.000117044)
(-0.990727 -0.135867 -0.000195106)
(-0.990727 -0.135867 -0.000195106)
(-0.990727 -0.135867 -0.000195106)
(-0.990727 -0.135867 -0.000195106)
(-0.990727 -0.135867 -0.000195106)
(-0.990846 -0.134997 -0.000112322)
(-0.990846 -0.134997 -0.000112322)
(-0.990846 -0.134997 -0.000112322)
(-0.990846 -0.134997 -0.000112322)
(-0.990936 -0.134332 -7.4101e-05)
(-0.992968 -0.117925 0.0103762)
(-0.990467 -0.137751 -0.000235217)
(-0.990467 -0.137751 -0.000235217)
(-0.990467 -0.137751 -0.000235217)
(-0.990467 -0.137751 -0.000235217)
(-0.982821 -0.184559 -0.000303357)
(-0.991389 -0.130951 -0.000376546)
(-0.993716 -0.111929 -0.000527044)
(-0.99092 -0.134449 -0.000397954)
(-0.99092 -0.134449 -0.000397954)
(0.987872 0.15527 0.000202876)
(-0.966035 -0.257742 -0.0185669)
(-0.991568 -0.129591 6.34512e-05)
(-0.988532 -0.151008 0.000937738)
(-0.988532 -0.151008 0.000937738)
(-0.988532 -0.151008 0.000937738)
(-0.988532 -0.151008 0.000937738)
(-0.988532 -0.151008 0.000937738)
(-0.988532 -0.151008 0.000937738)
(-0.988532 -0.151008 0.000937738)
(-0.988532 -0.151008 0.000937738)
(-0.988532 -0.151008 0.000937738)
(-0.988532 -0.151008 0.000937738)
(-0.993887 -0.110398 -0.000251997)
(-0.993813 -0.111064 -0.00037166)
(0.993651 0.112508 0.000631153)
(-0.98946 -0.144803 -0.000484993)
(-0.989456 -0.144835 -0.000501127)
(-0.989392 -0.145267 -0.000717759)
(0.98953 0.144325 0.000244814)
(-0.946862 -0.32164 0.000396926)
(-0.946862 -0.32164 0.000396926)
(-0.946862 -0.32164 0.000396926)
(-0.946862 -0.32164 0.000396926)
(-0.946862 -0.32164 0.000396926)
(-0.946774 -0.321898 0.000310297)
(-0.946774 -0.321898 0.000310297)
(-0.946774 -0.321898 0.000310297)
(-0.947613 -0.319421 0.000320588)
(-0.947174 -0.320721 0.000338908)
(-0.947613 -0.319421 0.000320588)
(-0.947174 -0.320721 0.000338908)
(-0.947613 -0.319421 0.000320588)
(-0.947174 -0.320721 0.000338908)
(-0.947682 -0.319216 0.000374882)
(-0.947682 -0.319216 0.000374882)
(-0.947682 -0.319216 0.000374882)
(-0.94713 -0.32085 0.000301987)
(-0.94713 -0.32085 0.000301987)
(-0.94713 -0.32085 0.000301987)
(-0.946186 -0.323622 0.000492172)
(-0.946186 -0.323622 0.000492172)
(-0.946186 -0.323622 0.000492172)
(-0.946368 -0.323089 0.000627975)
(-0.946368 -0.323089 0.000627975)
(-0.990375 -0.138404 0.000939487)
(-0.990375 -0.138404 0.000939487)
(-0.990375 -0.138404 0.000939487)
(-0.990375 -0.138404 0.000939487)
(-0.990375 -0.138404 0.000939487)
(-0.990375 -0.138404 0.000939487)
(-0.990375 -0.138404 0.000939487)
(-0.990375 -0.138404 0.000939487)
(-0.990375 -0.138404 0.000939487)
(-0.990375 -0.138404 0.000939487)
(-0.990375 -0.138404 0.000939487)
(-0.990375 -0.138404 0.000939487)
(-0.990896 -0.13463 0.000112718)
(-0.990896 -0.13463 0.000112718)
(-0.990896 -0.13463 0.000112718)
(-0.00224775 -0.999685 -0.0249873)
(-0.990328 -0.138744 0.00049971)
(-0.990328 -0.138744 0.00049971)
(-0.990328 -0.138744 0.00049971)
(-0.990976 -0.134038 7.07766e-05)
(-0.990976 -0.134038 7.07766e-05)
(-0.990976 -0.134038 7.07766e-05)
(-0.944054 -0.329789 0.000983646)
(-0.944054 -0.329789 0.000983646)
(-0.944653 -0.328071 0.000117574)
(-0.944653 -0.328071 0.000117574)
(-0.944653 -0.328071 0.000117574)
(-0.944653 -0.328071 0.000117574)
(-0.990455 -0.137838 -1.87682e-05)
(-0.990455 -0.137838 -1.87682e-05)
(-0.990455 -0.137838 -1.87682e-05)
(-0.990455 -0.137838 -1.87682e-05)
(-0.990455 -0.137838 -1.87682e-05)
(-0.988565 -0.150798 7.96266e-05)
(-0.988565 -0.150798 7.96266e-05)
(-0.989391 -0.145277 0.000316162)
(-0.989391 -0.145277 0.000316162)
(-0.00422795 -0.999675 -0.0251279)
(-0.989113 -0.147159 0.000123208)
(-0.989113 -0.147159 0.000123208)
(-0.989113 -0.147159 0.000123208)
(-0.00202846 -0.999686 -0.0249863)
(-0 0 -1)
(0 0 1)
(0 0 -1)
(0 0 -1)
(0 0 1)
(0 0 1)
(0 -0 -1)
(-0.0025549 -0.999997 -0.000496645)
(0.0293455 -0.999566 -0.0025289)
(0.0263411 -0.899965 0.435166)
(-0.979391 -0.201953 -0.00288888)
(-0.850491 -0.525865 -0.0114453)
(0.919561 -0.37621 0.113459)