/*--------------------------------*- C++ -*----------------------------------*\
| =========                 |                                                 |
| \\      /  F ield         | OpenFOAM: The Open Source CFD Toolbox           |
|  \\    /   O peration     | Version:  2.2.x                                 |
|   \\  /    A nd           | Web:      www.OpenFOAM.org                      |
|    \\/     M anipulation  |                                                 |
\*---------------------------------------------------------------------------*/
FoamFile
{
    version     2.0;
    format      ascii;
    class       extendedFeatureEdgeMesh;
    location    "constant/extendedFeatureEdgeMesh";
    object      lowerleg_left_back.extendedFeatureEdgeMesh;
}
// * * * * * * * * * * * * * * * * * * * * * * * * * * * * * * * * * * * * * //

// points

123
(
(1.91453 3.58495 0.0916016)
(1.95269 3.57952 0.411602)
(1.94494 3.58815 0.411602)
(1.91292 3.60032 0.536602)
(1.91292 3.60032 0.411602)
(1.96141 3.55766 0.411602)
(1.95954 3.56574 0.536602)
(1.95609 3.57396 0.536602)
(1.89636 3.58157 0.0916016)
(1.88647 3.56652 0.0916016)
(1.90792 3.58632 0.0916016)
(1.96143 3.55753 0.411602)
(1.88485 3.54033 0.0916016)
(1.88392 3.54925 0.0916016)
(1.88453 3.54338 0.0916016)
(1.88449 3.55811 0.0916016)
(1.88407 3.5515 0.0916016)
(1.88435 3.55592 0.0916016)
(1.88729 3.56836 0.0916016)
(1.889 3.57216 0.0916016)
(1.89109 3.57568 0.0916016)
(1.89358 3.57888 0.0916016)
(1.86638 3.53463 0.411602)
(1.88498 3.56019 0.0916016)
(1.92927 3.56634 0.0916016)
(1.92847 3.56893 0.0916016)
(1.9316 3.55559 0.0916016)
(1.93178 3.55436 0.0916016)
(1.93131 3.55761 0.0916016)
(1.9109 3.58601 0.0916016)
(1.91967 3.5816 0.0916016)
(1.9243 3.57647 0.0916016)
(1.92036 3.58109 0.0916016)
(1.91173 3.58584 0.0916016)
(1.86392 3.55032 0.536602)
(1.86539 3.53812 0.536602)
(1.95884 3.56553 0.536602)
(1.93161 3.55431 0.0916016)
(1.88525 3.54045 0.0916016)
(1.79993 3.52736 1.41806)
(1.74246 3.54594 1.42435)
(1.95571 3.57469 0.411602)
(1.95084 3.58198 0.411602)
(1.94484 3.58824 0.411602)
(1.92176 3.5995 0.411602)
(1.9593 3.56647 0.411602)
(1.93014 3.59713 0.411602)
(1.93789 3.59333 0.411602)
(1.903 3.5993 0.411602)
(1.89487 3.58053 0.0916016)
(1.89378 3.59637 0.411602)
(1.88546 3.59174 0.411602)
(1.91206 3.59709 0.251498)
(1.95831 3.56917 0.411602)
(1.87821 3.58562 0.411602)
(1.87225 3.57821 0.411602)
(1.86775 3.56972 0.411602)
(1.88415 3.54707 0.0916016)
(1.86491 3.56035 0.411602)
(1.88989 3.57415 0.0916016)
(1.88595 3.56434 0.0916016)
(1.86392 3.55032 0.411602)
(1.93069 3.56177 0.0916016)
(1.94483 3.57708 0.251214)
(1.93547 3.59471 0.411602)
(1.92466 3.59887 0.411602)
(1.90992 3.5916 0.171585)
(1.93762 3.57295 0.171326)
(1.91133 3.58597 0.0916016)
(1.92489 3.57578 0.0916016)
(1.92024 3.58123 0.0916016)
(1.86439 3.55722 0.536602)
(1.86437 3.55712 0.411602)
(1.87458 3.58146 0.411602)
(1.88051 3.58783 0.411602)
(1.86637 3.56595 0.411602)
(1.86982 3.57411 0.411602)
(1.88746 3.59306 0.411602)
(1.86634 3.56586 0.536602)
(1.90381 3.59946 0.411602)
(1.89559 3.59711 0.536602)
(1.88767 3.59319 0.536602)
(1.89527 3.59699 0.411602)
(1.87456 3.58143 0.536602)
(1.86976 3.57399 0.536602)
(1.90412 3.59952 0.536602)
(1.88061 3.58791 0.536602)
(1.86491 3.56035 0.536602)
(1.86775 3.56972 0.536602)
(1.87225 3.57821 0.536602)
(1.87821 3.58562 0.536602)
(1.88546 3.59174 0.536602)
(1.89378 3.59637 0.536602)
(1.903 3.5993 0.536602)
(1.93165 3.54566 0.0916016)
(1.93182 3.54692 0.0916016)
(1.8 3.58414 1.42485)
(1.76967 3.57734 1.42621)
(1.73533 3.53998 1.41672)
(1.74193 3.56455 1.42683)
(1.74127 3.55527 1.42587)
(1.88523 3.56127 0.0916016)
(1.95126 3.5814 0.536602)
(1.94525 3.58782 0.536602)
(1.93823 3.59307 0.536602)
(1.92189 3.59947 0.536602)
(1.93039 3.597 0.536602)
(1.90099 3.58482 0.0916016)
(1.90435 3.58594 0.0916016)
(1.95747 3.55963 0.331331)
(1.87702 3.53696 0.217394)
(1.88437 3.54493 0.0916016)
(1.88427 3.54595 0.0916016)
(1.88551 3.56247 0.0916016)
(1.88555 3.56263 0.0916016)
(1.9315 3.55628 0.0916016)
(1.95043 3.55825 0.251261)
(1.91006 3.5861 0.0916016)
(1.91612 3.58701 0.123718)
(1.92378 3.57708 0.0916016)
(1.92375 3.57712 0.0916016)
(1.92047 3.58095 0.0916016)
(1.91449 3.58495 0.0916016)
)

// edges

154
(
(101 9)
(37 38)
(39 40)
(14 13)
(111 13)
(112 13)
(111 112)
(16 17)
(113 9)
(114 9)
(113 114)
(35 36)
(102 103)
(5 6)
(7 102)
(103 104)
(105 3)
(104 106)
(106 105)
(107 108)
(8 107)
(108 10)
(109 11)
(12 13)
(110 12)
(13 15)
(18 19)
(20 21)
(22 110)
(23 101)
(25 24)
(115 26)
(28 115)
(27 116)
(117 29)
(10 117)
(116 109)
(118 0)
(0 30)
(119 31)
(120 119)
(121 120)
(32 121)
(122 0)
(33 122)
(34 35)
(35 22)
(27 37)
(6 35)
(1 41)
(42 1)
(2 42)
(43 2)
(4 44)
(45 5)
(41 45)
(6 7)
(44 46)
(46 47)
(47 43)
(4 48)
(49 8)
(50 51)
(48 50)
(10 52)
(11 5)
(5 53)
(51 54)
(55 56)
(12 14)
(57 13)
(53 1)
(56 58)
(13 16)
(17 15)
(9 18)
(19 59)
(59 20)
(21 49)
(54 55)
(15 23)
(60 9)
(58 61)
(24 62)
(26 27)
(62 28)
(63 25)
(64 65)
(65 4)
(52 66)
(25 67)
(2 64)
(67 63)
(29 68)
(1 2)
(69 25)
(30 70)
(66 10)
(31 69)
(70 32)
(68 33)
(71 34)
(61 72)
(73 74)
(75 76)
(76 73)
(74 77)
(78 71)
(79 4)
(80 81)
(82 79)
(77 82)
(83 84)
(84 78)
(85 80)
(81 86)
(72 75)
(3 85)
(86 83)
(87 34)
(88 87)
(89 88)
(90 89)
(91 90)
(92 91)
(93 92)
(3 93)
(36 7)
(37 94)
(94 95)
(95 27)
(57 16)
(17 23)
(38 14)
(60 18)
(19 20)
(21 8)
(29 33)
(30 32)
(31 25)
(24 28)
(26 37)
(6 36)
(22 5)
(12 38)
(11 22)
(96 97)
(39 96)
(40 98)
(98 39)
(97 99)
(99 39)
(39 100)
(100 40)
)

// concaveStart mixedStart nonFeatureStart
0 1 41
// internalStart flatStart openStart multipleStart
12 49 49 154
// normals

167
(
(-0.848361 -0.529415 -0.00178481)
(-0.798549 -0.601929 -0.000126094)
(-0.723102 -0.690741 -0.000116155)
(-0.660947 -0.750432 -0.000427287)
(-0.0923343 -0.995728 -0)
(-0.97241 -0.233276 0.0005026)
(-0.916451 -0.400147 0.000460252)
(-0.922193 -0.38673 -0.000491191)
(-0.272445 -0.962171 -1.42017e-07)
(-0.440025 -0.897986 -9.02913e-05)
(-0.590707 -0.806886 -0.00011813)
(0.102563 -0.994699 0.00743871)
(0.573165 -0.817855 0.0509471)
(0.485856 -0.873677 0.0251357)
(0.302749 -0.953011 0.0106187)
(0.106633 -0.992234 0.0640448)
(-0.988244 -0.146136 0.0449195)
(-0.964712 -0.260102 0.0409573)
(0.645405 -0.763373 0.0267365)
(0.878511 -0.465332 0.10809)
(0 0 1)
(0 0 -1)
(-0.878539 -0.476574 0.0323545)
(0.95533 -0.28964 0.0587639)
(0 0 1)
(0 0 1)
(0.912021 -0.409889 0.0144382)
(0.912011 -0.409912 0.0144449)
(0.787908 -0.614123 0.0453098)
(0.787952 -0.614067 0.0453049)
(0.777683 -0.626024 0.0574733)
(0.971727 -0.228075 0.0610559)
(0 0 -1)
(0.992469 -0.0978598 0.0736815)
(-0.948482 -0.294188 0.11762)
(-0.982585 -0.145391 0.115707)
(-0.982588 -0.145375 0.115705)
(-0.919557 -0.37622 0.113461)
(-0.359163 -0.933187 0.012843)
(-0.123095 -0.992361 0.00825405)
(-0.187955 -0.979519 0.072223)
(-0.905432 -0.405855 0.124398)
(-0.568611 -0.82234 0.0209276)
(-0.789946 -0.604543 0.102533)
(-0.103481 -0.992382 0.0668535)
(-0.743911 -0.66788 0.023079)
(-0.880364 -0.459711 0.116727)
(-0.543931 -0.83526 0.0804911)
(-0.109289 -0.991666 0.0682252)
(-0.756859 -0.646207 0.0978848)
(-0.757071 -0.645958 0.0978874)
(-0.30594 -0.948981 0.0763976)
(0.997743 -0.0671452 0)
(0.997815 -0.0660741 -5.93567e-05)
(0.731884 -0.681429 -2.02934e-05)
(0.921038 -0.389472 0.000102083)
(0.839069 -0.544025 2.24294e-05)
(0.601489 -0.798881 9.43995e-05)
(0.975429 -0.220313 6.67212e-05)
(0.0940434 -0.995568 0.000228964)
(0.443919 -0.896067 -0.000244221)
(0.278421 -0.960459 0.000238986)
(0.449371 -0.893345 0.000170056)
(0.839931 -0.542694 -8.82431e-05)
(0.921987 -0.387221 -6.84682e-05)
(0.271885 -0.96233 -0.000226053)
(0.598285 -0.801284 -0.000179984)
(0.975433 -0.220297 6.55398e-05)
(0.0908202 -0.995867 0)
(0.731238 -0.682123 -8.64954e-05)
(0 0 1)
(-0 0 1)
(-0 0 1)
(-0 0 1)
(-0 0 1)
(-0 0 1)
(-0 0 1)
(-0 0 1)
(0 0 1)
(0 -0 1)
(0 0 1)
(0 0 -1)
(0 0 -1)
(0 0 -1)
(0 0 -1)
(0 0 -1)
(0 0 -1)
(0 0 -1)
(0 0 -1)
(0 0 -1)
(0 0 -1)
(0 0 -1)
(0 0 -1)
(0.235348 -0.971479 0.0289911)
(0.286256 -0.958121 -0.00785025)
(0.233995 -0.971532 -0.0370326)
(0.0708592 -0.118602 0.99041)
(-0.151974 -0.704653 0.693086)
(0.075624 -0.115715 0.990399)
(0.0580945 -0.154171 0.986335)
(0.971729 -0.228067 0.0610561)
(0 0 -1)
(0 0 -1)
(0.286362 -0.958089 -0.00784241)
(-0.729754 -0.683709 -0.000741753)
(0 0 1)
(0.280817 -0.957482 0.066109)
(-0.838666 -0.544645 -0.000622442)
(-0.599055 -0.800708 -0.000798154)
(0 0 1)
(-0.0949989 -0.995477 -0.00019013)
(0 0 1)
(-0.448121 -0.893973 -0.000693872)
(0 0 1)
(-0.279033 -0.960281 -0.000470248)
(0 0 1)
(0.315931 -0.946953 0.0588853)
(0 0 -1)
(0.573159 -0.817859 0.0509477)
(0 0 -1)
(0 0 -1)
(0.992549 0.103361 0.0645259)
(0 0 -1)
(0 0 1)
(0 0 -1)
(0.996771 -0.064077 0.0483985)
(0.911999 -0.409939 0.0144496)
(0 0 -1)
(0.787926 -0.614101 0.045307)
(0 0 -1)
(0.986439 0.154307 0.0559313)
(0.276917 -0.960887 0.00364938)
(0.971723 -0.228092 0.0610556)
(0 0 -1)
(0 0 1)
(0 0 -1)
(-0.948468 -0.294235 0.117619)
(0 0 -1)
(-0.982591 -0.145351 0.115705)
(-0.982603 -0.145272 0.1157)
(0 0 -1)
(-0.975307 -0.186415 0.118427)
(0.282564 -0.9592 -0.00964983)
(-0.103644 -0.992364 0.0668627)
(0 0 -1)
(-0.103735 -0.992354 0.0668727)
(0 0 -1)
(-0.966843 -0.239294 0.0891742)
(0.259632 -0.965688 -0.00611918)
(-0.544027 -0.8352 0.0804704)
(0 -0.997953 0.0639498)
(0 0 -1)
(-0.756957 -0.646096 0.0978564)
(0 0 -1)
(-0.754634 -0.64872 0.0984404)
(0 0 -1)
(-0.75686 -0.646205 0.0978864)
(0 0 -1)
(-0.756586 -0.646525 0.0978904)
(0 0 -1)
(0 0 -1)
(-0.305629 -0.949084 0.0763589)
(0 0 -1)
(0.992893 0.119012 0)
(0.987979 0.154548 0.00352518)
(0 0 1)
(0.286742 -0.957977 -0.00766232)
)

// edgeNormals

154
(
2(100 101)
2(102 103)
2(97 99)
2(20 122)
2(122 123)
2(123 21)
2(123 124)
2(25 81)
2(101 134)
2(134 32)
2(134 135)
2(165 92)
2(104 105)
2(5 106)
2(107 78)
2(108 109)
2(110 111)
2(112 113)
2(114 115)
2(116 117)
2(118 119)
2(15 120)
2(16 95)
2(121 20)
2(121 94)
2(125 24)
2(126 127)
2(128 129)
2(130 131)
2(132 133)
2(136 137)
2(138 91)
2(139 140)
2(141 142)
2(143 144)
2(145 146)
2(147 148)
2(149 150)
2(149 151)
2(152 153)
2(154 155)
2(156 157)
2(158 159)
2(150 160)
2(161 162)
2(163 70)
2(164 93)
2(79 166)
2(106 92)
1(0)
1(1)
1(2)
1(3)
1(4)
1(5)
1(6)
1(7)
1(8)
1(9)
1(10)
1(11)
1(12)
1(13)
1(14)
1(15)
1(16)
1(17)
1(18)
1(19)
1(20)
1(21)
1(22)
1(23)
1(24)
1(25)
1(26)
1(27)
1(28)
1(29)
1(30)
1(31)
1(32)
1(33)
1(34)
1(35)
1(36)
1(37)
1(38)
1(39)
1(40)
1(41)
1(42)
1(43)
1(44)
1(45)
1(46)
1(47)
1(48)
1(49)
1(50)
1(51)
1(52)
1(53)
1(54)
1(55)
1(56)
1(57)
1(58)
1(59)
1(60)
1(61)
1(62)
1(63)
1(64)
1(65)
1(66)
1(67)
1(68)
1(69)
1(70)
1(71)
1(72)
1(73)
1(74)
1(75)
1(76)
1(77)
1(78)
1(79)
1(80)
1(80)
1(81)
1(82)
1(83)
1(84)
1(85)
1(86)
1(87)
1(88)
1(89)
1(90)
1(91)
1(92)
1(93)
1(94)
1(95)
1(96)
1(96)
1(97)
1(97)
1(98)
1(98)
1(99)
1(99)
)

// featurePointNormals

41
(
3(149 150 151)
4(0 1 22 45)
4(2 3 42 45)
3(110 111 68)
4(4 11 39 59)
5(5 106 16 17 93)
4(5 106 92 7)
3(107 78 7)
2(118 119)
4(100 101 134 26)
4(15 120 145 48)
2(16 95)
3(121 20 94)
4(20 122 121 125)
2(20 122)
3(125 24 31)
2(25 81)
2(25 81)
2(126 127)
2(126 127)
2(128 129)
2(128 129)
5(130 131 164 93 95)
2(132 133)
2(136 137)
5(136 137 37 41 46)
2(138 91)
5(141 142 79 166 35)
2(139 140)
2(143 144)
2(149 151)
2(152 153)
2(158 159)
2(161 162)
3(163 70 52)
6(165 92 163 164 93 106)
2(165 92)
3(102 103 79)
2(102 103)
4(97 99 96 98)
2(97 99)
)

// featurePointEdges

41
(
3(37 38 43)
4(49 50 71 94)
4(51 52 91 94)
3(16 117 126)
4(53 60 88 108)
5(13 54 65 66 143)
4(13 48 56 142)
3(14 56 127)
3(20 61 136)
5(0 8 9 75 81)
4(21 35 64 97)
3(22 65 145)
4(23 24 69 144)
7(23 3 4 5 25 70 73)
3(3 69 133)
3(25 74 80)
3(7 73 131)
3(7 74 132)
3(26 75 134)
3(26 76 135)
3(27 77 135)
3(27 78 136)
4(28 46 143 145)
3(29 80 132)
3(30 83 140)
5(30 86 90 95 139)
3(31 84 141)
4(33 47 84 130)
3(32 85 140)
3(34 93 137)
3(38 96 138)
3(39 98 139)
3(42 99 138)
3(44 100 137)
3(45 101 119)
4(45 46 11 48)
3(11 127 142)
4(47 1 128 141)
3(1 133 144)
5(2 147 149 151 152)
3(2 148 153)
)

// regionEdges

105
(
49
50
51
52
53
54
55
56
57
58
59
60
61
62
63
64
65
66
67
68
69
70
71
72
73
74
75
76
77
78
79
80
81
82
83
84
85
86
87
88
89
90
91
92
93
94
95
96
97
98
99
100
101
102
103
104
105
106
107
108
109
110
111
112
113
114
115
116
117
118
119
120
121
122
123
124
125
126
127
128
129
130
131
132
133
134
135
136
137
138
139
140
141
142
143
144
145
146
147
148
149
150
151
152
153
)



// ************************************************************************* //
