/*--------------------------------*- C++ -*----------------------------------*\
| =========                 |                                                 |
| \\      /  F ield         | OpenFOAM: The Open Source CFD Toolbox           |
|  \\    /   O peration     | Version:  2.2.x                                 |
|   \\  /    A nd           | Web:      www.OpenFOAM.org                      |
|    \\/     M anipulation  |                                                 |
\*---------------------------------------------------------------------------*/
FoamFile
{
    version     2.0;
    format      ascii;
    class       extendedFeatureEdgeMesh;
    location    "constant/extendedFeatureEdgeMesh";
    object      neck_back.extendedFeatureEdgeMesh;
}
// * * * * * * * * * * * * * * * * * * * * * * * * * * * * * * * * * * * * * //

// points

144
(
(1.84221 3.54488 1.46518)
(1.75779 3.54488 1.46518)
(1.8581 3.56457 1.42684)
(1.7419 3.56457 1.42684)
(1.85864 3.55997 1.42641)
(1.85589 3.56233 1.42921)
(1.84491 3.52254 1.43205)
(1.84997 3.55667 1.43745)
(1.84997 3.55658 1.43743)
(1.84997 3.5564 1.43739)
(1.84998 3.55673 1.43745)
(1.84414 3.55089 1.4506)
(1.83905 3.54661 1.48091)
(1.81062 3.56086 1.48065)
(1.84988 3.55669 1.43758)
(1.83034 3.57734 1.42621)
(1.8 3.58414 1.42485)
(1.83934 3.54595 1.48082)
(1.84302 3.51048 1.47597)
(1.84281 3.53507 1.47934)
(1.84031 3.54353 1.48049)
(1.83991 3.54457 1.48063)
(1.83977 3.54492 1.48068)
(1.85518 3.53851 1.42264)
(1.85277 3.55924 1.4331)
(1.8518 3.55839 1.43451)
(1.85378 3.56033 1.43178)
(1.84899 3.52736 1.41805)
(1.75012 3.55669 1.43758)
(1.76095 3.54661 1.48091)
(1.78938 3.56086 1.48065)
(1.76967 3.57734 1.42621)
(1.75586 3.55089 1.4506)
(1.74172 3.56344 1.42675)
(1.74181 3.56401 1.42679)
(1.75003 3.55658 1.43743)
(1.76066 3.54595 1.48082)
(1.74137 3.56001 1.42642)
(1.75003 3.55667 1.43745)
(1.74189 3.56453 1.42683)
(1.75719 3.53507 1.47934)
(1.75101 3.52736 1.41805)
(1.75982 3.54388 1.48054)
(1.76009 3.54457 1.48063)
(1.75698 3.51048 1.47597)
(1.75969 3.54353 1.48049)
(1.84885 3.52735 1.4181)
(1.84886 3.52736 1.41807)
(1.74188 3.56444 1.42683)
(1.74188 3.56448 1.42683)
(1.74188 3.5645 1.42683)
(1.84892 3.52736 1.41806)
(1.8 3.56238 1.4647)
(1.8 3.56866 1.45102)
(1.8 3.55884 1.47909)
(1.8 3.57605 1.43775)
(1.81518 3.58109 1.42605)
(1.83949 3.54561 1.48077)
(1.84071 3.54245 1.48034)
(1.84045 3.54317 1.48044)
(1.8412 3.541 1.48015)
(1.83963 3.54526 1.48073)
(1.84018 3.54388 1.48054)
(1.84913 3.52763 1.41816)
(1.78482 3.58109 1.42605)
(1.7418 3.56396 1.42679)
(1.74183 3.56415 1.4268)
(1.74185 3.5643 1.42682)
(1.74186 3.56437 1.42682)
(1.76051 3.54561 1.48077)
(1.75929 3.54245 1.48034)
(1.7588 3.541 1.48015)
(1.76023 3.54492 1.48068)
(1.75955 3.54317 1.48044)
(1.76037 3.54526 1.48073)
(1.93178 3.55436 0.0916016)
(1.93161 3.55431 0.0916016)
(1.93165 3.54566 0.0916016)
(1.93182 3.54692 0.0916016)
(1.80074 3.55933 1.48088)
(1.84896 3.52737 1.41804)
(1.842 3.51679 1.41274)
(1.7416 3.56229 1.42664)
(1.74193 3.56455 1.42683)
(1.85378 3.56024 1.43176)
(1.85042 3.55659 1.4366)
(1.84425 3.55072 1.45062)
(1.84441 3.55053 1.45064)
(1.84416 3.55083 1.45061)
(1.85 3.55602 1.43733)
(1.84406 3.55084 1.45081)
(1.84076 3.54742 1.4655)
(1.84509 3.5477 1.45047)
(1.84247 3.54548 1.4653)
(1.85094 3.55644 1.43579)
(1.8518 3.55826 1.43448)
(1.85752 3.55938 1.42765)
(1.85808 3.5597 1.42703)
(1.85378 3.56039 1.43179)
(1.85303 3.55732 1.43291)
(1.85414 3.55779 1.43155)
(1.85053 3.55362 1.43724)
(1.85423 3.55737 1.43154)
(1.85589 3.56239 1.42922)
(1.85751 3.55943 1.42766)
(1.85524 3.55844 1.43023)
(1.85527 3.55829 1.43022)
(1.85638 3.55892 1.42893)
(1.8564 3.55882 1.42893)
(1.75594 3.55084 1.45081)
(1.75002 3.55673 1.43745)
(1.75491 3.5477 1.45047)
(1.75924 3.54742 1.4655)
(1.75753 3.54548 1.4653)
(1.75575 3.55072 1.45062)
(1.75559 3.55053 1.45064)
(1.75003 3.5564 1.43739)
(1.75584 3.55083 1.45061)
(1.84249 3.5185 1.44638)
(1.85482 3.56127 1.43046)
(1.84466 3.55014 1.45066)
(1.83132 3.5544 1.48162)
(1.82146 3.55933 1.48153)
(1.84482 3.57212 1.42688)
(1.842 3.54675 1.46541)
(1.84418 3.52283 1.47767)
(1.84254 3.54578 1.46535)
(1.85753 3.54594 1.4244)
(1.85297 3.55758 1.43292)
(1.85196 3.55687 1.43432)
(1.85189 3.55718 1.43434)
(1.75518 3.57212 1.42688)
(1.76868 3.5544 1.48162)
(1.77854 3.55933 1.48153)
(1.758 3.54675 1.46541)
(1.74158 3.56231 1.42665)
(1.75582 3.52283 1.47767)
(1.74482 3.53851 1.42264)
(1.74247 3.54594 1.4244)
(1.75509 3.52254 1.43205)
(1.75746 3.54578 1.46535)
(1.74127 3.55527 1.42587)
(1.75751 3.5185 1.44638)
(1.75534 3.55014 1.45066)
)

// edges

185
(
(4 5)
(84 85)
(8 86)
(87 9)
(8 9)
(88 7)
(9 89)
(10 14)
(90 11)
(11 14)
(91 17)
(92 0)
(20 0)
(22 93)
(21 0)
(89 94)
(95 8)
(24 95)
(96 97)
(10 98)
(99 100)
(7 25)
(25 8)
(101 102)
(103 98)
(26 25)
(104 96)
(105 106)
(107 108)
(32 109)
(28 32)
(110 28)
(1 111)
(36 112)
(42 1)
(43 113)
(1 45)
(35 114)
(115 116)
(117 38)
(44 18)
(41 47)
(97 4)
(6 118)
(5 119)
(86 7)
(9 120)
(87 8)
(88 10)
(12 121)
(121 122)
(123 2)
(122 13)
(14 90)
(2 14)
(15 123)
(2 10)
(124 11)
(2 4)
(18 125)
(118 18)
(92 20)
(125 19)
(93 21)
(22 126)
(8 24)
(101 4)
(26 7)
(127 23)
(4 127)
(108 104)
(100 105)
(25 24)
(24 84)
(106 107)
(5 26)
(128 99)
(129 128)
(130 129)
(94 130)
(24 85)
(28 3)
(3 131)
(132 29)
(133 132)
(30 133)
(109 28)
(134 32)
(33 34)
(135 33)
(37 135)
(134 36)
(39 3)
(40 136)
(137 138)
(139 41)
(41 137)
(113 42)
(140 43)
(141 37)
(44 142)
(138 141)
(136 44)
(111 45)
(142 139)
(115 35)
(117 110)
(38 114)
(143 116)
(31 3)
(131 31)
(52 53)
(13 54)
(55 16)
(53 55)
(56 15)
(17 12)
(16 56)
(57 17)
(21 22)
(58 59)
(60 58)
(22 61)
(62 21)
(20 62)
(61 57)
(19 60)
(59 20)
(27 6)
(63 27)
(23 63)
(54 30)
(64 16)
(16 52)
(31 64)
(33 65)
(65 34)
(34 66)
(66 67)
(68 48)
(67 68)
(29 36)
(36 69)
(50 39)
(70 71)
(72 43)
(73 70)
(71 40)
(45 73)
(42 45)
(43 42)
(74 72)
(69 74)
(75 76)
(76 77)
(77 78)
(78 75)
(79 30)
(19 12)
(13 79)
(29 40)
(27 80)
(80 81)
(81 27)
(46 6)
(82 37)
(33 82)
(39 83)
(83 31)
(31 16)
(37 33)
(16 15)
(23 27)
(27 16)
(16 47)
(48 35)
(35 49)
(49 38)
(38 50)
(46 47)
(47 51)
(51 46)
(33 31)
(33 39)
(39 31)
)

// concaveStart mixedStart nonFeatureStart
2 4 48
// internalStart flatStart openStart multipleStart
42 111 111 175
// normals

208
(
(0.759966 -0.081163 -0.644876)
(0.763445 -0.0732772 -0.641702)
(0.763445 -0.0732772 -0.641702)
(0.835069 0.152199 -0.528673)
(0.770219 -0.0599153 -0.634958)
(0.770219 -0.0599153 -0.634958)
(0.812384 0.0580259 -0.580229)
(0.00584755 -0.954559 -0.297965)
(-0.00584755 0.954559 0.297965)
(0.00584755 -0.954559 -0.297965)
(-0.000346205 -0.954086 -0.299532)
(0.00584755 -0.954559 -0.297965)
(0.00584755 -0.954559 -0.297965)
(0.00584755 -0.954559 -0.297965)
(-0.0696549 0.101533 -0.992391)
(-0.061678 0.0854295 -0.994433)
(-0.061678 0.0854295 -0.994433)
(-0.061678 0.0854295 -0.994433)
(-0.061678 0.0854295 -0.994433)
(0.179161 -0.894193 -0.410268)
(0.212267 -0.953695 -0.213093)
(-0.104015 -0.842419 -0.528688)
(0.0359017 -0.873001 -0.486396)
(-0.20139 -0.835849 -0.510685)
(-0.916661 -0.380703 -0.121647)
(-0.130871 -0.850803 -0.508927)
(-0.913134 -0.361185 -0.189031)
(-0.921659 -0.34657 -0.174452)
(-0.931753 -0.310931 -0.187505)
(-0.93754 -0.294864 -0.184591)
(-0.918292 -0.349698 -0.185609)
(-0.9282 -0.342543 -0.145287)
(-0.93115 -0.334501 -0.145152)
(-0.914566 -0.3564 -0.191175)
(-0.958159 -0.2389 -0.157664)
(-0.92783 -0.321171 -0.189684)
(-0.883677 0.4573 -0.0999604)
(-0.851106 0.511519 -0.11818)
(-0.840459 0.523985 -0.138087)
(-0.212269 -0.953694 -0.213093)
(0.130872 -0.850788 -0.508952)
(0.318673 -0.831858 -0.454379)
(0.1945 -0.80981 -0.553513)
(0.303131 -0.122351 0.945062)
(0.762407 -0.0671117 -0.643608)
(0.764051 -0.06798 -0.641565)
(0.765901 -0.0636972 -0.639796)
(0.916143 -0.381946 -0.121654)
(0.91554 -0.361294 -0.176785)
(0.698303 -0.0582824 -0.713426)
(0.937776 -0.295176 -0.182885)
(0.920252 -0.344479 -0.185663)
(0.931369 -0.312011 -0.187617)
(0.955803 -0.235631 -0.17584)
(0.927481 -0.320706 -0.192162)
(0.93115 -0.334501 -0.145152)
(0.925121 -0.337208 -0.174479)
(0.917429 -0.348903 -0.191286)
(0.914946 -0.356523 -0.189115)
(0 -0 1)
(0 0 1)
(-4.11049e-06 0.147841 0.989011)
(-0.00297263 -0.135676 0.990749)
(-0.0294996 0.332574 0.942616)
(0.0659223 -0.155491 0.985635)
(-0.358429 -0.21839 0.907653)
(-0.0382176 -0.941438 -0.335014)
(-0.181961 0.113014 -0.97679)
(-0.183985 0.109584 -0.976801)
(0.0732893 -0.192825 0.978492)
(0.0955362 -0.159257 0.982604)
(-0.0752847 0.138939 -0.987435)
(0.0651904 0.0927283 -0.993555)
(0.193641 0.279784 -0.940332)
(-0.034133 0.0895661 -0.995396)
(-0.72524 -0.0313447 -0.687782)
(0.734797 0.0564651 0.675933)
(0.860308 -0.139571 0.490295)
(0.0555415 0.778586 0.625075)
(-0.928975 0.113071 -0.352448)
(-0.639816 -0.56045 -0.525862)
(-0.706393 -0.488004 -0.5127)
(-0.930147 0.0663338 -0.361146)
(0.876033 -0.0890964 0.473949)
(-0.607439 -0.591256 -0.530503)
(-0.922434 0.0568346 -0.381951)
(-0.927117 -0.00736858 -0.3747)
(0.869244 -0.0149622 0.494157)
(-0.825592 0.105351 -0.554345)
(-0.383651 -0.768655 -0.511842)
(-0.184055 -0.93952 -0.288835)
(-0.917483 0.284268 -0.278238)
(-0.478336 -0.868813 -0.127896)
(-0.98006 -0.0271226 -0.196844)
(0.820441 -0.569419 0.0513792)
(-0.956748 0.243466 -0.159242)
(-0.901677 0.413539 -0.126346)
(-0.836588 -0.0931956 -0.539848)
(0.842034 0.0650559 0.535488)
(-0.832569 0.50477 -0.228112)
(0.876623 -0.313789 0.364786)
(0.616652 0.372084 0.693754)
(-0.697318 -0.151255 -0.700621)
(0.74368 0.00737795 0.668495)
(-0.845378 0.0580031 -0.53101)
(-0.702633 0.711451 -0.0120145)
(-0.522116 -0.580822 -0.624533)
(0.739196 0.155318 0.655336)
(-0.874477 0.137571 -0.46515)
(-0.766196 0.63403 -0.104641)
(-0.414454 -0.631115 -0.655685)
(-0.429457 -0.600962 -0.674101)
(-0.766275 -0.181313 -0.616399)
(-0.764795 0.629949 -0.135103)
(-0.813413 0.124823 -0.568136)
(0.850655 -0.160417 0.500652)
(-0.747872 -0.00825092 -0.663791)
(-0.732477 -0.120726 -0.670002)
(0.723186 0.118467 0.680417)
(-0.735632 -0.0751327 -0.673201)
(0.730152 0.0739315 0.679273)
(0.183623 -0.939616 -0.288799)
(0.91785 0.281882 -0.279455)
(0.382681 -0.769249 -0.511675)
(0.825163 0.103595 -0.555314)
(0.98006 -0.0271226 -0.196844)
(-0.820441 -0.569419 0.0513792)
(0.478301 -0.868838 -0.127862)
(0.90733 0.40992 -0.0933648)
(0.959334 0.241515 -0.146114)
(0.639816 -0.56045 -0.525862)
(0.92902 0.114193 -0.35197)
(0.930147 0.0663338 -0.361146)
(0.706393 -0.488004 -0.5127)
(0.922431 0.0568347 -0.381958)
(0.607437 -0.591255 -0.530507)
(0 -0.127532 0.991834)
(0 -0.965187 -0.26156)
(1.40222e-05 -0.945552 -0.325471)
(0.000211723 0.38098 -0.924583)
(0.731955 0.0339104 0.680508)
(-0.906017 0.421882 -0.0338807)
(-0.00388673 -0.962288 -0.272006)
(0.833822 -0.425591 0.351587)
(-0.747826 -0.41639 -0.517084)
(-0.709949 -0.69479 -0.115065)
(0 -0.0909344 0.995857)
(-0.44421 -0.889604 -0.106216)
(0 0.0180208 0.999838)
(-0.375241 -0.656716 -0.654154)
(0.126702 0.227867 -0.965414)
(-0.126362 -0.981648 -0.142828)
(-0.501018 -0.688085 -0.5249)
(-0.41603 -0.551424 -0.723084)
(-0.257646 -0.786942 -0.560661)
(-0.870922 -0.426253 -0.244546)
(-0.711778 -0.0183522 -0.702164)
(0.0672145 0.0988113 -0.992834)
(-0.99522 0.0883381 0.0416322)
(-0.00341848 -0.13568 0.990747)
(-0.980984 -0.0949357 -0.169287)
(-0.991718 -0.100153 -0.0804086)
(-0.772454 -0.0865704 -0.629143)
(-0.858108 0.11882 -0.499533)
(-0.848542 0.360252 -0.387549)
(0.120355 0.192787 -0.973831)
(-0.88659 0.133555 -0.442856)
(0.0821632 0.135427 -0.987375)
(0.726496 0.0844144 0.681967)
(0.7034 0.196339 0.683139)
(0.852334 -0.390275 0.348155)
(0.711913 0.145201 0.687093)
(-0.800447 0.0792969 -0.594135)
(0.746066 0.15356 0.647924)
(-0.76253 -0.157902 -0.627387)
(0.749891 0.18919 0.633932)
(0.78332 0.12334 0.60926)
(-0.799177 -0.127659 -0.587384)
(0.798357 0.129943 0.587997)
(0.348044 -0.608619 -0.713055)
(-0.126732 0.227938 -0.965393)
(0.709949 -0.69479 -0.115065)
(0.44421 -0.889604 -0.106216)
(0.106195 -0.194641 0.975109)
(0.126362 -0.981648 -0.142828)
(0.570175 -0.62853 -0.52901)
(0.87169 -0.424844 -0.244264)
(0.765514 -0.0599757 -0.640618)
(0.772785 -0.0444365 -0.63311)
(0.796399 -0.0140083 -0.604609)
(0.986242 -0.0917414 -0.137514)
(0.0380941 -0.139396 0.989504)
(0.904842 0.345257 -0.249117)
(-0.147522 0.183722 -0.971845)
(0.858249 0.507702 -0.07514)
(0.832074 0.0475278 -0.552624)
(-0.0782821 0.115646 -0.990201)
(0.949878 0.297065 0.0973897)
(0.0125534 -0.965168 -0.261331)
(0.885344 0.181054 -0.428236)
(-0.099529 0.142897 -0.98472)
(0.994242 0.0994408 -0.039921)
(0.0238557 -0.133746 0.990729)
(0.906041 0.421824 -0.0339689)
(0.00872593 -0.962044 -0.272754)
(0.748587 -0.415237 -0.516909)
(0.927117 -0.00736858 -0.3747)
(0.236353 -0.737056 -0.633155)
)

// edgeNormals

185
(
2(75 76)
2(77 78)
2(79 80)
2(81 82)
2(82 83)
2(84 85)
2(86 87)
2(88 89)
2(90 91)
2(89 91)
2(24 92)
2(93 94)
2(94 32)
2(27 95)
2(31 96)
2(97 98)
2(99 100)
2(99 101)
2(102 103)
2(104 105)
2(106 107)
2(108 109)
2(108 110)
2(111 112)
2(113 114)
2(109 115)
2(116 103)
2(117 118)
2(119 120)
2(121 122)
2(123 122)
2(123 124)
2(125 126)
2(47 127)
2(128 55)
2(129 56)
2(126 55)
2(130 131)
2(132 133)
2(134 135)
2(136 137)
2(138 139)
2(140 102)
2(141 142)
2(76 143)
2(79 84)
2(81 86)
2(82 80)
2(85 144)
2(145 146)
2(147 148)
2(149 150)
2(151 63)
2(152 91)
2(153 88)
2(154 150)
2(88 105)
2(155 90)
2(156 157)
2(158 159)
2(158 137)
2(94 160)
2(161 159)
2(27 96)
2(95 30)
2(99 110)
2(162 111)
2(163 109)
2(164 165)
2(166 167)
2(116 168)
2(117 169)
2(170 110)
2(170 78)
2(119 171)
2(172 143)
2(173 174)
2(174 175)
2(176 177)
2(177 178)
2(78 101)
2(179 124)
2(179 180)
2(181 64)
2(182 183)
2(184 183)
2(185 122)
2(121 186)
2(187 43)
2(188 68)
2(189 67)
2(48 127)
2(49 69)
2(190 191)
2(192 193)
2(194 138)
2(194 139)
2(128 56)
2(129 51)
2(195 196)
2(197 198)
2(199 200)
2(201 202)
2(54 126)
2(203 204)
2(130 132)
2(205 134)
2(131 135)
2(133 206)
2(70 180)
2(207 180)
1(19)
1(20)
1(21)
1(22)
1(23)
1(24)
1(25)
1(26)
1(27)
1(28)
1(29)
1(30)
1(31)
1(32)
1(33)
1(34)
1(35)
1(36)
1(37)
1(38)
1(39)
1(40)
1(41)
1(42)
1(43)
1(43)
1(44)
1(45)
1(0)
1(46)
1(47)
1(48)
1(49)
1(50)
1(51)
1(52)
1(53)
1(54)
1(55)
1(56)
1(57)
1(58)
1(59)
1(59)
1(60)
1(60)
1(61)
1(62)
1(63)
1(64)
1(65)
1(65)
1(65)
1(66)
1(67)
1(68)
1(69)
1(70)
1(71)
1(14)
1(72)
1(73)
1(73)
1(74)
3(0 1 2)
3(3 1 2)
3(3 4 5)
3(6 4 5)
7(7 8 9 10 11 12 13)
6(7 8 9 11 12 13)
6(7 8 9 11 12 13)
5(14 15 16 17 18)
4(15 16 17 18)
4(15 16 17 18)
)

// featurePointNormals

48
(
5(93 94 32 31 96)
4(125 126 128 55)
7(149 150 153 88 105 156 157)
6(179 124 180 49 69 70)
10(75 76 140 102 156 157 162 111 166 167)
4(75 76 143 172)
4(141 142 36 66)
6(84 85 108 109 79 163)
8(79 80 82 83 99 100 108 110)
5(81 82 83 86 87)
6(88 89 104 105 85 144)
4(90 91 89 155)
4(145 146 24 62)
3(151 63 20)
5(88 89 91 152 153)
4(154 150 23 72)
8(21 25 40 41 71 72 73 74)
3(24 92 26)
4(136 137 158 159)
3(161 159 34)
4(94 32 160 35)
3(31 96 27)
3(27 95 30)
4(164 165 38 73)
5(99 101 110 170 78)
5(108 109 110 115 170)
5(109 115 163 172 143)
4(36 37 65 73)
5(123 122 124 179 185)
3(181 64 47)
4(184 183 39 61)
7(70 180 207 42 71 14 15)
4(121 122 123 186)
6(187 43 188 68 14 15)
3(187 43 44)
6(130 131 132 0 1 3)
3(47 127 48)
5(189 67 195 196 14)
6(134 135 131 3 4 6)
3(49 69 15)
4(190 191 53 64)
3(138 139 194)
3(128 55 56)
3(129 56 51)
6(136 137 197 198 201 202)
3(126 55 54)
4(66 7 8 10)
6(138 139 74 7 8 10)
)

// featurePointEdges

48
(
3(11 12 14)
3(32 34 36)
4(51 54 56 58)
4(81 82 92 109)
5(42 0 58 66 69)
3(0 44 75)
3(43 128 164)
4(45 5 21 67)
6(2 47 4 16 65 22)
4(3 46 4 6)
4(48 7 56 19)
3(57 8 9)
3(49 116 158)
3(52 112 159)
4(53 54 7 9)
3(55 115 171)
8(113 117 132 133 169 171 173 174)
3(10 116 118)
3(59 60 40)
3(62 126 158)
4(61 12 124 127)
4(63 14 119 123)
4(13 64 119 122)
3(68 130 172)
5(65 17 72 73 80)
4(21 22 25 72)
3(67 25 75)
6(128 129 161 163 172 173)
4(81 86 30 31)
3(83 141 160)
3(85 131 157)
7(109 110 182 184 134 168 169)
3(87 29 30)
7(88 89 182 183 135 166 170)
3(88 136 137)
4(175 176 105 37)
4(33 91 141 142)
4(90 99 165 170)
4(177 178 39 107)
5(92 183 184 143 167)
3(93 147 160)
3(95 96 41)
4(34 97 149 150)
4(98 35 145 150)
3(100 102 40)
4(103 36 148 149)
3(179 181 164)
4(179 180 41 174)
)

// regionEdges

74
(
175
176
177
178
179
180
181
182
183
184
111
112
113
114
115
116
117
118
119
120
121
122
123
124
125
126
127
128
129
130
131
132
133
134
135
136
137
138
139
140
141
142
143
144
145
146
147
148
149
150
151
152
153
154
155
156
157
158
159
160
161
162
163
164
165
166
167
168
169
170
171
172
173
174
)



// ************************************************************************* //
