/*--------------------------------*- C++ -*----------------------------------*\
| =========                 |                                                 |
| \\      /  F ield         | OpenFOAM: The Open Source CFD Toolbox           |
|  \\    /   O peration     | Version:  2.2.x                                 |
|   \\  /    A nd           | Web:      www.OpenFOAM.org                      |
|    \\/     M anipulation  |                                                 |
\*---------------------------------------------------------------------------*/
FoamFile
{
    version     2.0;
    format      ascii;
    class       extendedFeatureEdgeMesh;
    location    "constant/extendedFeatureEdgeMesh";
    object      neck_front.extendedFeatureEdgeMesh;
}
// * * * * * * * * * * * * * * * * * * * * * * * * * * * * * * * * * * * * * //

// points

43
(
(1.8 3.48227 1.41066)
(1.82371 3.48971 1.40585)
(1.84302 3.51048 1.47597)
(1.83934 3.49859 1.47433)
(1.842 3.51679 1.41274)
(1.84899 3.52736 1.41805)
(1.8 3.47326 1.46578)
(1.77353 3.49226 1.40613)
(1.82131 3.4828 1.47164)
(1.82727 3.48801 1.47253)
(1.75101 3.52736 1.41805)
(1.75698 3.51048 1.47597)
(1.84886 3.52736 1.41807)
(1.83075 3.4899 1.47339)
(1.80142 3.47366 1.46624)
(1.93178 3.55436 0.0916016)
(1.93161 3.55431 0.0916016)
(1.93165 3.54566 0.0916016)
(1.93182 3.54692 0.0916016)
(1.84896 3.52737 1.41804)
(1.78873 3.51631 1.45598)
(1.84885 3.52735 1.4181)
(1.79717 3.4741 1.46669)
(1.79858 3.47366 1.46624)
(1.79406 3.47766 1.43797)
(1.80594 3.47766 1.43797)
(1.84249 3.5185 1.44638)
(1.84491 3.52254 1.43205)
(1.76478 3.50428 1.40848)
(1.758 3.51679 1.41274)
(1.76066 3.49859 1.47433)
(1.77869 3.4828 1.47164)
(1.78617 3.48512 1.40706)
(1.79579 3.47474 1.45232)
(1.77629 3.48971 1.40585)
(1.77935 3.4876 1.40586)
(1.8 3.47597 1.43794)
(1.80421 3.47474 1.45232)
(1.81383 3.48512 1.40706)
(1.82899 3.49504 1.40653)
(1.82065 3.4876 1.40586)
(1.75751 3.5185 1.44638)
(1.75509 3.52254 1.43205)
)

// edges

56
(
(24 6)
(25 6)
(8 9)
(2 11)
(10 12)
(3 2)
(2 26)
(26 27)
(27 5)
(28 29)
(30 31)
(0 32)
(6 33)
(31 6)
(34 7)
(32 35)
(6 36)
(7 28)
(35 34)
(24 33)
(6 37)
(37 25)
(1 8)
(38 0)
(39 1)
(1 40)
(40 38)
(4 39)
(29 10)
(11 30)
(41 11)
(10 42)
(42 41)
(6 11)
(7 0)
(5 4)
(9 3)
(15 16)
(16 17)
(17 18)
(18 15)
(8 3)
(19 4)
(7 19)
(12 7)
(20 21)
(21 12)
(5 20)
(13 22)
(22 23)
(23 13)
(13 9)
(8 13)
(6 8)
(6 14)
(14 8)
)

// concaveStart mixedStart nonFeatureStart
0 2 14
// internalStart flatStart openStart multipleStart
5 35 35 53
// normals

66
(
(-0.402443 0.915089 -0.0255136)
(-0.0931988 -0.36169 0.927628)
(-0.363532 0.263399 0.893569)
(-0.363532 0.263399 0.893569)
(-0.363532 0.263399 0.893569)
(-0.840124 0.541687 0.0276962)
(-0.664059 0.733583 0.144504)
(0 -0 1)
(0 0 1)
(-0.00398792 -0.16358 0.986522)
(-0.093526 0.494117 -0.86435)
(0.0489556 0.225907 -0.972918)
(0.0163188 0.952687 0.303516)
(0.0383133 0.941372 0.335187)
(0.0942605 -0.551809 0.828626)
(-0.363045 0.26215 0.894134)
(0.272844 0.957547 0.0930604)
(-0.426511 0.874948 0.22925)
(0.426525 0.874939 0.229253)
(-0.272839 0.957548 0.0930606)
(-0.664051 0.73359 0.144508)
(0 -0.136544 0.990634)
(0 0.965187 0.26156)
(0.000209161 0.448581 -0.893742)
(-3.80182e-06 0.960063 0.279783)
(-0.951069 0.274871 0.141116)
(-0.905262 0.405726 0.126043)
(-0.895936 0.443416 -0.0261078)
(0.00388673 0.962288 0.272006)
(-0.923959 0.352845 -0.147647)
(0.879639 0.475633 0.00290373)
(0.0168397 0.330715 -0.94358)
(0.664056 0.733586 0.144502)
(0.038827 -0.12464 0.991442)
(0.140397 0.964714 0.222746)
(0.309915 0.438477 -0.843617)
(0.402445 0.915089 -0.0255142)
(0.299926 0.0865524 0.950028)
(0.679805 0.73154 0.0520959)
(0.298537 0.416382 -0.858779)
(0.317911 0.938258 0.136396)
(0.3078 0.440297 -0.843444)
(0.80833 0.588723 -0.00291112)
(0.567266 0.821371 0.0596534)
(0.349616 0.925417 0.146194)
(-0.349616 0.925417 0.146191)
(-0.884621 0.46601 0.0167545)
(-0.511034 0.856592 0.0713714)
(-0.140396 0.964714 0.222746)
(-0.0866386 -0.592764 -0.800703)
(-0.711959 0.70169 0.0273039)
(0.00091871 0.125133 -0.99214)
(-0.567266 0.821371 0.0596534)
(-0.00539587 0.00166593 -0.999984)
(-0.317912 0.938258 0.136394)
(-0.0391587 -0.342884 -0.938561)
(-0.8564 0.516136 -0.0135111)
(-0.00699995 0.278515 -0.960406)
(0.839793 0.54228 0.0260765)
(0.951069 0.274871 0.141116)
(0.905262 0.405726 0.126043)
(-0.0125521 0.965168 0.261331)
(0.922368 0.35792 -0.145366)
(-0.0703313 0.936732 0.342909)
(0.895928 0.443429 -0.0261698)
(-0.01669 0.961593 0.273971)
)

// edgeNormals

56
(
2(16 17)
2(18 19)
2(20 15)
2(21 22)
2(23 24)
2(25 21)
2(26 22)
2(27 28)
2(29 13)
2(30 31)
2(32 33)
2(34 35)
2(36 17)
2(36 37)
2(38 39)
2(40 41)
2(16 19)
2(42 11)
2(43 41)
2(17 44)
2(18 0)
2(18 45)
2(46 47)
2(48 49)
2(50 51)
2(52 53)
2(54 55)
2(56 57)
2(58 23)
2(59 33)
2(60 61)
2(62 63)
2(64 65)
2(37 1)
2(35 49)
1(5)
1(6)
1(7)
1(7)
1(8)
1(8)
1(9)
1(10)
1(10)
1(11)
1(12)
1(12)
1(13)
1(14)
1(14)
1(14)
1(15)
1(15)
5(0 1 2 3 4)
3(2 3 4)
3(2 3 4)
)

// featurePointNormals

14
(
4(34 35 48 49)
6(46 47 50 51 52 53)
4(21 22 25 26)
4(25 21 6 9)
4(56 57 5 10)
3(29 13 5)
9(16 17 18 19 36 37 0 1 2)
7(38 39 42 11 35 49 10)
7(20 15 46 47 9 0 1)
2(20 15)
5(23 24 58 62 63)
8(21 22 59 33 60 61 37 1)
4(23 24 11 12)
2(14 15)
)

// featurePointEdges

14
(
3(11 23 34)
3(22 24 25)
3(5 6 3)
3(5 36 41)
3(27 35 42)
3(8 35 47)
9(12 13 0 16 20 1 53 33 54)
5(14 17 34 43 44)
6(22 2 53 55 41 52)
3(2 36 51)
3(28 31 4)
4(29 30 33 3)
3(4 44 46)
4(48 50 51 52)
)

// regionEdges

21
(
53
54
55
35
36
37
38
39
40
41
42
43
44
45
46
47
48
49
50
51
52
)



// ************************************************************************* //
