/*--------------------------------*- C++ -*----------------------------------*\
| =========                 |                                                 |
| \\      /  F ield         | OpenFOAM: The Open Source CFD Toolbox           |
|  \\    /   O peration     | Version:  2.2.x                                 |
|   \\  /    A nd           | Web:      www.OpenFOAM.org                      |
|    \\/     M anipulation  |                                                 |
\*---------------------------------------------------------------------------*/
FoamFile
{
    version     2.0;
    format      ascii;
    class       extendedFeatureEdgeMesh;
    location    "constant/extendedFeatureEdgeMesh";
    object      upperarm_left_front.extendedFeatureEdgeMesh;
}
// * * * * * * * * * * * * * * * * * * * * * * * * * * * * * * * * * * * * * //

// points

57
(
(2.00361 3.58855 1.09729)
(1.95726 3.55033 1.29693)
(2.07266 3.58767 1.09734)
(1.94219 3.53506 1.39432)
(1.95437 3.54164 1.2982)
(1.94231 3.50409 1.33191)
(1.94219 3.511 1.31761)
(1.9423 3.50412 1.3318)
(1.94223 3.50414 1.33166)
(1.94219 3.50238 1.33932)
(1.94226 3.50414 1.3317)
(1.94229 3.50413 1.33175)
(1.95345 3.55033 1.29691)
(1.94219 3.55032 1.29686)
(1.94965 3.55032 1.2969)
(1.94225 3.50411 1.33175)
(1.94223 3.50412 1.3317)
(1.94227 3.5041 1.3318)
(1.9422 3.50409 1.33175)
(1.94219 3.5041 1.3317)
(1.94219 3.50389 1.33263)
(1.94219 3.50492 1.33292)
(1.95147 3.55032 1.2969)
(1.94221 3.50412 1.33166)
(1.94219 3.50413 1.33162)
(1.93178 3.55436 0.0916016)
(1.93161 3.55431 0.0916016)
(1.93165 3.54566 0.0916016)
(1.93182 3.54692 0.0916016)
(1.94219 3.50321 1.33563)
(1.94219 3.50366 1.33366)
(1.961 3.53169 1.30064)
(1.9648 3.52386 1.30439)
(1.95844 3.54063 1.2981)
(1.96971 3.51745 1.30924)
(2.01351 3.56456 1.09879)
(2.00873 3.57187 1.09833)
(2.02654 3.55439 1.09943)
(2.01952 3.55863 1.09916)
(2.04256 3.55224 1.09956)
(2.03434 3.55217 1.09957)
(2.05612 3.55802 1.0992)
(2.05018 3.55453 1.09942)
(2.00545 3.57997 1.09783)
(2.01352 3.54005 1.35256)
(2.06879 3.57426 1.09818)
(2.06122 3.5626 1.09891)
(2.00255 3.54268 1.37246)
(1.94219 3.51095 1.37608)
(1.94219 3.52153 1.3871)
(1.94219 3.50182 1.34713)
(1.94219 3.50423 1.36243)
(1.96432 3.54086 1.39456)
(1.94229 3.50405 1.33203)
(1.94219 3.52178 1.30644)
(1.94219 3.5353 1.29931)
(1.98512 3.5413 1.38666)
)

// edges

74
(
(31 32)
(33 31)
(1 33)
(32 34)
(2 0)
(13 3)
(20 5)
(35 36)
(37 38)
(38 35)
(39 40)
(41 42)
(42 39)
(0 1)
(40 37)
(43 0)
(36 43)
(44 2)
(2 45)
(45 46)
(46 41)
(47 44)
(48 49)
(50 51)
(3 52)
(5 53)
(9 50)
(54 6)
(49 3)
(55 54)
(1 12)
(13 55)
(51 48)
(14 13)
(52 56)
(56 47)
(20 53)
(24 8)
(6 24)
(25 26)
(26 27)
(27 28)
(28 25)
(12 14)
(18 20)
(29 9)
(20 30)
(30 29)
(7 5)
(8 10)
(11 7)
(10 11)
(12 4)
(4 22)
(14 4)
(10 15)
(15 16)
(16 10)
(11 15)
(7 17)
(17 5)
(16 8)
(23 16)
(17 11)
(15 17)
(18 16)
(16 19)
(19 18)
(18 15)
(23 19)
(21 9)
(6 21)
(18 21)
(18 9)
)

// concaveStart mixedStart nonFeatureStart
0 0 22
// internalStart flatStart openStart multipleStart
7 37 37 48
// normals

123
(
(-0.137063 0.952937 0.270416)
(-0.458597 0.848167 0.265145)
(-0.458597 0.848167 0.265145)
(-0.458597 0.848167 0.265145)
(-0.458597 0.848167 0.265145)
(-0.458597 0.848167 0.265145)
(-0.192672 0.970143 0.147306)
(-0.448904 0.825042 0.343207)
(-0.448904 0.825042 0.343207)
(-0.159771 0.961871 0.221984)
(-0.455984 0.841722 0.289107)
(-0.455984 0.841722 0.289107)
(-0.455984 0.841722 0.289107)
(-0.176069 0.966699 0.185721)
(0.452663 -0.83899 -0.30198)
(-0.452663 0.83899 0.30198)
(-0.00471019 0.146418 0.989212)
(-0.004321 0.146459 0.989207)
(-0.004321 0.146459 0.989207)
(-0.00468756 0.146339 0.989223)
(-0.00468756 0.146339 0.989223)
(0.00629707 0.152177 0.988333)
(0.454782 -0.838303 -0.300702)
(-0.454782 0.838303 0.300702)
(-0.34163 0.90258 0.261989)
(-0.34163 0.90258 0.261989)
(-0.34163 0.90258 0.261989)
(-0.34163 0.90258 0.261989)
(-0.454098 0.842347 0.290254)
(-0.454098 0.842347 0.290254)
(-0.454098 0.842347 0.290254)
(-0.299008 0.930639 0.210963)
(-0.454948 0.822564 0.341189)
(-0.454948 0.822564 0.341189)
(-0.315532 0.902767 0.292322)
(-0.315532 0.902767 0.292322)
(-0.315532 0.902767 0.292322)
(-0.315532 0.902767 0.292322)
(-0.315532 0.902767 0.292322)
(-0.248724 0.943565 0.218681)
(-0.316599 0.906249 0.280141)
(-0.316599 0.906249 0.280141)
(-0.316599 0.906249 0.280141)
(-0.316599 0.906249 0.280141)
(-0.345391 0.915575 0.205981)
(-1 0 0)
(-0.999984 -0.00525495 -0.00208738)
(-0.999984 -0.00525495 -0.00208738)
(-0.999984 -0.00525495 -0.00208738)
(-0.999984 -0.00525495 -0.00208738)
(-0.999984 -0.00525495 -0.00208738)
(-1 0 0)
(-0.999984 -0.00525482 -0.00208747)
(-0.999984 -0.00525482 -0.00208747)
(-0.218768 0.972165 0.0838759)
(0.00614966 0.897863 0.440232)
(0 -0 1)
(0 0 1)
(-0.00101506 0.994846 0.101396)
(0.138805 0.965858 0.218749)
(-0.188151 0.95792 0.21677)
(0.797673 0.527192 0.292892)
(0.25298 0.515221 0.81887)
(0.899902 0.336565 0.277309)
(0.179287 0.315562 0.931814)
(0.956845 0.14746 0.250404)
(0.0554118 0.126639 0.9904)
(0.640227 0.710397 0.29231)
(0.255287 0.699654 0.667318)
(0.012314 0.981558 0.19077)
(-6.88671e-07 -0.0626012 -0.998039)
(-0.251925 0.956101 0.149683)
(-1 0 0)
(0.827938 0.49109 0.270831)
(0.79152 0.535983 0.293628)
(-1.29613e-05 -0.0625407 -0.998042)
(0.489161 0.827595 0.275333)
(-3.77487e-05 -0.062514 -0.998044)
(0.662671 0.68951 0.292306)
(1.24567e-05 -0.0626055 -0.998038)
(-0.00861838 0.982937 0.183739)
(-5.3032e-05 -0.0625224 -0.998044)
(-0.504533 0.862564 0.0378242)
(-7.2586e-05 -0.0625353 -0.998043)
(-0.284319 0.952502 0.109099)
(0.000100209 -0.0626521 -0.998035)
(0.262255 0.935104 0.238333)
(4.34059e-05 -0.0626261 -0.998037)
(0.939882 0.217476 0.263297)
(0.882439 0.3759 0.282846)
(-3.05354e-06 -0.0625807 -0.99804)
(-0.949527 0.263003 -0.170961)
(-0.00147752 0.983096 0.183084)
(-4.66238e-05 -0.0625604 -0.998041)
(-0.837362 0.537621 -0.098939)
(-0.668691 0.743144 -0.0242649)
(5.84376e-05 -0.0626081 -0.998038)
(-0.861331 0.128088 -0.491633)
(0.198567 0.979887 -0.0198123)
(-0.0432673 0.720557 -0.692044)
(-1 0 0)
(-0.0471685 0.98679 -0.154985)
(-1 0 -0)
(-0.073084 0.318498 -0.945102)
(-0.124405 0.940352 0.316641)
(-0.0844962 0.99392 0.0705904)
(-1 0 0)
(-0.0526566 0.718628 0.693398)
(0.0564352 0.47016 -0.880775)
(0.0344801 0.4657 0.884271)
(-1 0 0)
(-0.00072719 0.994865 0.101211)
(0.00681623 0.161125 0.986911)
(-1 0 0)
(0.0253865 0.896829 -0.441649)
(-1 0 0)
(-0.00441167 0.151338 0.988472)
(-0.000701841 0.994868 0.101179)
(-0.341088 0.33319 -0.879001)
(0.0143224 0.995544 0.0932004)
(-0.615187 0.309151 -0.725239)
(0.00199228 0.995081 0.0990492)
(-0.211433 0.953288 0.215728)
)

// edgeNormals

74
(
2(61 62)
2(63 64)
2(65 66)
2(67 68)
2(69 70)
2(71 72)
2(31 73)
2(74 75)
2(76 77)
2(78 79)
2(80 81)
2(82 83)
2(84 85)
2(65 69)
2(86 87)
2(88 70)
2(89 90)
2(91 92)
2(91 93)
2(94 93)
2(95 96)
2(97 98)
2(99 100)
2(101 102)
2(103 71)
2(104 73)
2(105 106)
2(107 51)
2(108 72)
2(109 110)
2(16 111)
2(112 113)
2(114 115)
2(116 117)
2(118 119)
2(120 121)
2(73 122)
1(54)
1(55)
1(56)
1(56)
1(57)
1(57)
1(58)
1(44)
1(59)
1(60)
1(60)
6(0 1 2 3 4 5)
3(6 7 8)
4(9 10 11 12)
3(13 14 15)
3(16 17 18)
4(19 17 20 18)
3(19 21 20)
4(22 14 23 15)
6(22 23 24 25 26 27)
4(22 23 7 8)
5(14 15 28 29 30)
8(1 2 3 4 5 10 11 12)
6(1 2 3 4 5 31)
4(32 7 33 8)
7(32 33 34 35 36 37 38)
6(28 10 29 11 30 12)
4(28 29 30 39)
8(40 24 41 25 42 26 43 27)
9(40 41 42 34 35 36 37 43 38)
4(40 41 42 43)
5(24 25 26 27 44)
5(34 35 36 37 38)
6(45 46 47 48 49 50)
3(51 52 53)
7(52 53 46 47 48 49 50)
5(46 47 48 49 50)
)

// featurePointNormals

22
(
4(69 70 65 88)
5(65 66 69 16 111)
4(69 70 91 92)
4(71 72 103 108)
2(16 21)
5(31 73 104 0 1)
4(107 51 55 52)
4(0 1 9 10)
4(54 6 7 32)
4(105 106 59 46)
7(6 7 13 14 15 22 23)
6(9 10 13 14 15 28)
2(16 111)
5(71 72 112 116 117)
4(116 117 19 21)
8(22 14 23 15 24 28 39 44)
7(22 23 24 7 32 34 40)
5(1 10 31 28 39)
4(44 40 24 52)
2(40 34)
5(31 73 122 44 60)
2(45 46)
)

// featurePointEdges

22
(
3(13 15 4)
3(2 13 30)
3(17 18 4)
3(24 28 5)
3(52 53 54)
4(48 25 60 6)
3(27 71 38)
3(48 50 59)
3(49 61 37)
4(26 70 73 45)
4(49 51 55 57)
4(50 51 58 63)
3(52 30 43)
3(31 33 5)
3(54 33 43)
5(55 56 58 64 68)
6(56 57 61 62 65 66)
4(59 60 63 64)
6(65 67 68 72 73 44)
3(66 67 69)
4(6 36 44 46)
3(70 71 72)
)

// regionEdges

37
(
48
49
50
51
52
53
54
55
56
57
58
59
60
61
62
63
64
65
66
67
68
69
70
71
72
73
37
38
39
40
41
42
43
44
45
46
47
)



// ************************************************************************* //
