/*--------------------------------*- C++ -*----------------------------------*\
| =========                 |                                                 |
| \\      /  F ield         | OpenFOAM: The Open Source CFD Toolbox           |
|  \\    /   O peration     | Version:  2.2.x                                 |
|   \\  /    A nd           | Web:      www.OpenFOAM.org                      |
|    \\/     M anipulation  |                                                 |
\*---------------------------------------------------------------------------*/
FoamFile
{
    version     2.0;
    format      ascii;
    class       extendedFeatureEdgeMesh;
    location    "constant/extendedFeatureEdgeMesh";
    object      upperarm_right_front.extendedFeatureEdgeMesh;
}
// * * * * * * * * * * * * * * * * * * * * * * * * * * * * * * * * * * * * * //

// points

72
(
(1.65781 3.50275 1.33712)
(1.65781 3.50413 1.33162)
(1.65781 3.53163 1.393)
(1.65781 3.52153 1.3871)
(1.65781 3.55032 1.29686)
(1.65781 3.54061 1.29787)
(1.65781 3.5111 1.31767)
(1.65781 3.53152 1.30077)
(1.65781 3.50182 1.34685)
(1.65781 3.50415 1.33157)
(1.64274 3.55033 1.29693)
(1.65781 3.50182 1.34698)
(1.59455 3.57997 1.09783)
(1.59639 3.58855 1.09729)
(1.65781 3.53503 1.39407)
(1.65781 3.53515 1.39411)
(1.65781 3.54074 1.39587)
(1.65781 3.53498 1.39406)
(1.52733 3.58778 1.09733)
(1.65781 3.5408 1.39528)
(1.59565 3.58854 1.09729)
(1.65781 3.53486 1.39353)
(1.64623 3.50392 1.33693)
(1.65781 3.50978 1.37432)
(1.65781 3.5054 1.36572)
(1.65781 3.51581 1.38199)
(1.65781 3.50272 1.35648)
(1.65781 3.51604 1.3115)
(1.65781 3.51007 1.31897)
(1.65781 3.50556 1.3276)
(1.65781 3.52326 1.30537)
(1.65781 3.53502 1.29965)
(1.65781 3.50252 1.33948)
(1.65782 3.53511 1.3941)
(1.65781 3.5349 1.39403)
(1.65781 3.53673 1.39461)
(1.65781 3.50413 1.36211)
(1.65781 3.51081 1.37587)
(1.65781 3.51105 1.31752)
(1.65781 3.52164 1.30655)
(1.65781 3.53512 1.39434)
(1.65781 3.53502 1.29941)
(1.93178 3.55436 0.0916016)
(1.93161 3.55431 0.0916016)
(1.93165 3.54566 0.0916016)
(1.93182 3.54692 0.0916016)
(1.65781 3.53401 1.39375)
(1.65781 3.51954 1.36281)
(1.64155 3.54063 1.2981)
(1.639 3.53169 1.30064)
(1.6352 3.52386 1.30439)
(1.63029 3.51745 1.30924)
(1.65781 3.50386 1.33252)
(1.65781 3.504 1.33204)
(1.65781 3.50407 1.3318)
(1.65781 3.52324 1.38834)
(1.65035 3.55032 1.2969)
(1.64655 3.55033 1.29691)
(1.54982 3.55453 1.09942)
(1.54392 3.55799 1.0992)
(1.55744 3.55224 1.09956)
(1.58048 3.55863 1.09916)
(1.57346 3.55439 1.09943)
(1.53884 3.56252 1.09892)
(1.53126 3.57414 1.09819)
(1.56566 3.55217 1.09957)
(1.59126 3.57187 1.09833)
(1.58649 3.56456 1.09879)
(1.58648 3.54005 1.35256)
(1.59745 3.54268 1.37246)
(1.63568 3.54086 1.39456)
(1.61488 3.5413 1.38666)
)

// edges

92
(
(7 5)
(48 49)
(49 50)
(10 48)
(50 51)
(19 16)
(4 19)
(18 20)
(15 2)
(14 2)
(17 2)
(14 17)
(52 53)
(53 54)
(0 52)
(54 1)
(2 55)
(4 56)
(55 3)
(56 57)
(57 10)
(11 8)
(58 59)
(60 58)
(61 62)
(63 64)
(62 65)
(66 67)
(65 60)
(59 63)
(10 13)
(67 61)
(12 66)
(68 69)
(14 15)
(16 2)
(70 16)
(69 71)
(71 70)
(64 18)
(18 68)
(1 22)
(23 24)
(3 25)
(25 23)
(24 26)
(5 4)
(6 27)
(28 6)
(29 28)
(27 30)
(7 31)
(31 5)
(22 9)
(32 0)
(8 32)
(9 29)
(26 11)
(30 7)
(33 14)
(15 33)
(16 15)
(17 34)
(34 2)
(16 35)
(35 19)
(8 0)
(36 11)
(37 36)
(1 9)
(9 38)
(3 37)
(38 39)
(40 3)
(39 41)
(41 4)
(19 40)
(42 43)
(43 44)
(44 45)
(45 42)
(46 3)
(2 46)
(17 47)
(47 21)
(21 14)
(15 6)
(6 21)
(21 15)
(13 12)
(13 20)
(20 12)
)

// concaveStart mixedStart nonFeatureStart
0 0 22
// internalStart flatStart openStart multipleStart
12 41 41 89
// normals

102
(
(-0.939879 0.217489 0.263299)
(-0.000204612 0.0626447 0.998036)
(-0.000204612 0.0626447 0.998036)
(-0.0107093 0.982449 0.186225)
(0.00014136 -0.0626366 -0.998036)
(0.117308 0.94862 0.293869)
(0.0759284 0.888279 -0.452985)
(0.0738303 0.664066 -0.74402)
(0.0718818 0.784487 -0.615965)
(0.079528 0.95757 -0.277013)
(0.00442665 0.103471 0.994623)
(0.120369 0.775492 0.619777)
(0.120364 0.775513 0.619752)
(0.104861 0.881576 0.460247)
(0.136187 0.640898 0.755449)
(1 0 0)
(0.123145 0.94396 0.306227)
(0.0852201 0.99184 0.0948193)
(0.0852647 0.991828 0.0949056)
(0.109956 0.935931 0.334578)
(0.0822722 0.992111 -0.0945853)
(0.147779 0.481354 0.863979)
(0.105481 0.298547 -0.948548)
(-1 0 0)
(1 0 0)
(1 0 0)
(1 0 0)
(1 -0 0)
(1 -0 0)
(1 0 0)
(1 0 0)
(1 -0 0)
(1 0 0)
(1 -0 0)
(1 0 0)
(1 0 0)
(1 -0 0)
(0 -0 1)
(0 0 1)
(-1 0 -0)
(-1 0 0)
(1 0 -0)
(1 -0 0)
(-1 0 0)
(0.143894 0.300379 0.942903)
(-0.179294 0.315561 0.931813)
(-0.899906 0.336554 0.277308)
(-0.252991 0.515223 0.818865)
(-0.797671 0.527193 0.292895)
(-0.0554119 0.12664 0.9904)
(-0.956843 0.147472 0.250406)
(-0.255248 0.699665 0.667321)
(-0.640172 0.710448 0.292307)
(-0.0003934 0.995357 0.0962473)
(-0.000396295 0.995349 0.0963356)
(1.96492e-07 -0.0625716 -0.99804)
(-0.0107839 0.982448 0.186222)
(0.111981 0.952993 0.281539)
(1 0 0)
(0.115568 0.950028 0.289984)
(1 0 0)
(0.0937314 0.967838 0.23346)
(1 0 0)
(1 0 0)
(0.0641337 0.484492 -0.872442)
(0.00105929 0.983177 0.182651)
(0.0694018 0.586633 -0.806874)
(0.00449592 0.151332 0.988473)
(0.00137252 0.983112 0.182998)
(0.00471019 0.146418 0.989212)
(0.00110937 0.983164 0.182724)
(0.137941 0.990441 0)
(0.503286 0.863273 0.0382461)
(3.39955e-05 -0.0626335 -0.998037)
(0.284323 0.9525 0.109102)
(-5.75097e-05 -0.0625106 -0.998044)
(-0.489209 0.827565 0.275339)
(0.000117986 -0.0626464 -0.998036)
(0.836183 0.539555 -0.0983785)
(4.49102e-06 -0.0625907 -0.998039)
(-0.262259 0.935103 0.238334)
(-7.29514e-05 -0.0625228 -0.998044)
(-0.791576 0.535903 0.293625)
(0.000172828 -0.0626449 -0.998036)
(0.00861838 0.982937 0.183739)
(5.21118e-05 -0.0626256 -0.998037)
(0.666895 0.744777 -0.0236053)
(-9.92892e-06 -0.0625594 -0.998041)
(0.00531666 0.982377 0.186833)
(-0.662611 0.689569 0.292304)
(-6.21444e-05 -0.0625554 -0.998041)
(-0.882397 0.375987 0.282858)
(0.861335 0.128086 -0.491625)
(-0.170052 0.984771 -0.0361752)
(1 0 0)
(0.0580021 0.300412 -0.952044)
(-1 0 0)
(0.615183 0.309159 -0.725238)
(-0.00199227 0.995081 0.0990492)
(0.341092 0.333152 -0.879014)
(-0.0143224 0.995544 0.0932004)
(0.949652 0.262539 -0.170982)
)

// edgeNormals

92
(
2(44 15)
2(45 46)
2(47 48)
2(49 50)
2(51 52)
2(25 53)
2(36 54)
2(55 56)
2(23 94)
2(94 96)
2(96 24)
2(96 42)
2(57 58)
2(59 60)
2(61 62)
2(5 63)
2(64 40)
2(10 65)
2(66 39)
2(67 68)
2(69 70)
2(71 26)
2(72 73)
2(74 75)
2(76 77)
2(78 79)
2(80 81)
2(82 83)
2(84 85)
2(86 87)
2(50 88)
2(89 90)
2(91 4)
2(92 93)
2(22 94)
2(95 23)
2(95 53)
2(97 98)
2(99 100)
2(101 55)
2(101 56)
1(5)
1(6)
1(7)
1(8)
1(9)
1(10)
1(11)
1(12)
1(13)
1(14)
1(15)
1(15)
1(16)
1(17)
1(18)
1(19)
1(20)
1(21)
1(22)
1(22)
1(23)
1(24)
1(24)
1(25)
1(25)
1(26)
1(27)
1(28)
1(29)
1(30)
1(31)
1(32)
1(33)
1(34)
1(35)
1(36)
1(37)
1(37)
1(38)
1(38)
1(39)
1(40)
1(41)
1(41)
1(42)
1(43)
1(43)
1(43)
3(0 1 2)
3(1 2 3)
3(1 2 4)
)

// featurePointNormals

22
(
3(61 62 17)
2(5 63)
4(23 94 64 95)
4(66 39 7 31)
4(36 54 10 65)
3(44 15 10)
2(11 43)
3(44 15 21)
3(71 26 18)
3(16 19 29)
5(49 50 69 70 88)
3(71 26 20)
4(91 4 0 1)
5(50 88 0 1 3)
3(94 96 22)
3(23 94 22)
4(25 53 95 23)
2(96 24)
3(55 56 101)
2(25 53)
3(55 56 1)
2(41 43)
)

// featurePointEdges

22
(
3(14 54 66)
3(15 41 69)
7(16 35 8 9 10 63 82)
5(18 43 71 73 81)
4(17 6 46 75)
3(0 46 52)
4(47 48 86 87)
3(0 51 58)
3(21 55 66)
4(53 56 69 70)
3(20 3 30)
3(21 57 67)
3(89 32 91)
3(30 89 90)
5(34 9 11 59 85)
6(34 8 60 61 86 88)
5(35 36 5 61 64)
4(10 11 62 83)
3(39 40 7)
4(5 6 65 76)
3(90 91 7)
4(84 85 87 88)
)

// regionEdges

51
(
89
90
91
41
42
43
44
45
46
47
48
49
50
51
52
53
54
55
56
57
58
59
60
61
62
63
64
65
66
67
68
69
70
71
72
73
74
75
76
77
78
79
80
81
82
83
84
85
86
87
88
)



// ************************************************************************* //
