/*--------------------------------*- C++ -*----------------------------------*\
| =========                 |                                                 |
| \\      /  F ield         | OpenFOAM: The Open Source CFD Toolbox           |
|  \\    /   O peration     | Version:  2.2.x                                 |
|   \\  /    A nd           | Web:      www.OpenFOAM.org                      |
|    \\/     M anipulation  |                                                 |
\*---------------------------------------------------------------------------*/
FoamFile
{
    version     2.0;
    format      ascii;
    class       extendedFeatureEdgeMesh;
    location    "constant/extendedFeatureEdgeMesh";
    object      upperarm_left_back.extendedFeatureEdgeMesh;
}
// * * * * * * * * * * * * * * * * * * * * * * * * * * * * * * * * * * * * * //

// points

73
(
(1.94219 3.55032 1.29686)
(1.98604 3.59682 1.32539)
(2.00428 3.60607 1.09619)
(1.95746 3.55918 1.29713)
(1.95726 3.55033 1.29693)
(2.00361 3.58855 1.09729)
(2.07266 3.58767 1.09734)
(1.94219 3.53506 1.39432)
(1.97454 3.5932 1.31402)
(1.9694 3.58885 1.30894)
(1.96492 3.58296 1.30451)
(1.96134 3.57579 1.30096)
(1.98014 3.5959 1.31956)
(2.00322 3.59734 1.09674)
(1.99179 3.59595 1.33108)
(2.00671 3.58373 1.34583)
(2.00243 3.58916 1.3416)
(1.95884 3.56777 1.29849)
(1.99741 3.59331 1.33664)
(2.01433 3.56199 1.35336)
(2.01275 3.56984 1.3518)
(2.01017 3.57722 1.34926)
(1.99668 3.59377 1.33591)
(2.00189 3.5897 1.34107)
(1.96888 3.58829 1.30842)
(1.97384 3.59273 1.31333)
(2.00635 3.58427 1.34548)
(1.99087 3.59621 1.33017)
(1.97927 3.5956 1.31869)
(1.985 3.59679 1.32437)
(2.00997 3.57769 1.34905)
(2.01265 3.57019 1.35171)
(1.96457 3.58238 1.30416)
(1.96114 3.57529 1.30077)
(1.95875 3.56741 1.29841)
(1.93178 3.55436 0.0916016)
(1.93161 3.55431 0.0916016)
(1.93165 3.54566 0.0916016)
(1.93182 3.54692 0.0916016)
(1.95744 3.55899 1.29711)
(1.94219 3.5615 1.2982)
(2.01084 3.62243 1.09516)
(2.01614 3.62908 1.09475)
(2.02997 3.63756 1.09421)
(2.03819 3.63874 1.09414)
(2.02257 3.63423 1.09442)
(2.04496 3.63794 1.09419)
(2.0512 3.63568 1.09433)
(2.05682 3.63213 1.09455)
(2.06175 3.62746 1.09485)
(2.06918 3.61549 1.0956)
(2.00683 3.61459 1.09565)
(2.01352 3.54005 1.35256)
(2.07283 3.60162 1.09647)
(1.94219 3.55032 1.39686)
(1.96432 3.54086 1.39456)
(2.00255 3.54268 1.37246)
(1.98512 3.5413 1.38666)
(1.94965 3.55032 1.2969)
(1.94219 3.56559 1.3943)
(1.94219 3.59179 1.37281)
(1.94219 3.59586 1.36408)
(1.94219 3.59754 1.33544)
(1.94219 3.59452 1.32627)
(1.94219 3.58617 1.38055)
(1.94219 3.58976 1.31776)
(1.94219 3.58192 1.30894)
(1.94219 3.57227 1.30228)
(1.94219 3.57911 1.3871)
(1.94219 3.59878 1.34498)
(1.95147 3.55032 1.2969)
(1.95345 3.55033 1.29691)
(1.94219 3.59823 1.35464)
)

// edges

78
(
(39 4)
(3 39)
(0 7)
(6 5)
(40 0)
(41 42)
(43 44)
(45 43)
(42 45)
(4 5)
(44 46)
(46 47)
(48 49)
(49 50)
(47 48)
(51 41)
(2 51)
(6 52)
(53 6)
(50 53)
(7 54)
(55 7)
(56 57)
(57 55)
(52 56)
(0 58)
(54 59)
(60 61)
(62 63)
(64 60)
(65 66)
(66 67)
(67 40)
(68 64)
(69 62)
(58 70)
(70 71)
(71 4)
(63 65)
(72 69)
(61 72)
(59 68)
(8 9)
(10 11)
(12 8)
(9 10)
(1 12)
(13 2)
(5 13)
(14 1)
(15 16)
(17 3)
(16 18)
(11 17)
(18 14)
(19 20)
(21 15)
(20 21)
(22 23)
(24 25)
(23 26)
(1 27)
(28 29)
(26 30)
(25 28)
(30 31)
(32 24)
(29 1)
(33 32)
(31 19)
(27 22)
(3 34)
(34 33)
(35 36)
(36 37)
(37 38)
(38 35)
(5 2)
)

// concaveStart mixedStart nonFeatureStart
0 0 8
// internalStart flatStart openStart multipleStart
4 42 42 78
// normals

109
(
(0.646989 -0.762499 -0.000945677)
(0.8695 -0.483806 0.0995084)
(0.477276 -0.87693 -0.056587)
(0.776137 -0.628473 0.0513231)
(0.26338 -0.957906 -0.11422)
(0.973672 -0.104854 0.202409)
(0.969968 0.0577557 0.236278)
(0.0191621 -0.9852 -0.170337)
(-0.645607 -0.715741 -0.266283)
(0.965896 -0.184067 0.182113)
(-0.458937 -0.85276 -0.249354)
(0.931357 -0.334821 0.143069)
(-0.230577 -0.94854 -0.217039)
(-0.938318 -0.238407 -0.250443)
(-0.785244 -0.558687 -0.266948)
(-0.878559 -0.397792 -0.264378)
(-0.372683 -0.874055 -0.311665)
(0.370421 -0.843167 0.389689)
(-0.517625 -0.753457 -0.405421)
(-0.0484269 -0.99572 -0.078715)
(0.12446 -0.98879 0.0824852)
(-0.637829 -0.607626 -0.473249)
(0.265309 -0.9358 0.23214)
(-0.731397 -0.444956 -0.516791)
(0.424348 -0.712678 0.558586)
(0.0338153 -0.999411 -0.00587039)
(0.508795 -0.559084 0.654639)
(-0.798565 -0.271618 -0.537139)
(-0.206823 -0.957989 -0.198698)
(0.320765 -0.194919 0.926886)
(0.295032 -0.355391 0.886935)
(0 -0 1)
(0 0 1)
(-5.94088e-07 -0.0625938 -0.998039)
(0.975602 -0.0251547 0.218101)
(-0.00471823 -0.0207886 0.999773)
(0.973741 -0.103779 0.20263)
(0.509367 -0.117047 0.852552)
(-1 0 -0)
(0.251925 -0.956101 -0.149683)
(-0.012314 -0.981558 -0.19077)
(0.0552659 -0.118492 0.991416)
(-1 0 0)
(0.78266 -0.620035 0.0547713)
(1.00138e-05 -0.0625711 -0.998041)
(0.139055 -0.978826 -0.150209)
(-8.7683e-06 -0.0626064 -0.998038)
(0.406549 -0.910022 -0.081101)
(-4.71752e-05 -0.0626391 -0.998036)
(0.624884 -0.78065 -0.0102637)
(-1.35562e-05 -0.0626031 -0.998039)
(-0.112409 -0.972977 -0.201694)
(5.26951e-05 -0.0625651 -0.998041)
(-0.326687 -0.915302 -0.235581)
(9.08314e-06 -0.062589 -0.998039)
(-0.654673 -0.707139 -0.267128)
(5.73422e-05 -0.0625719 -0.99804)
(-0.810728 -0.520255 -0.268432)
(-0.000122099 -0.0626209 -0.998037)
(-0.509204 -0.82148 -0.256676)
(9.14454e-06 -0.062589 -0.998039)
(0.887152 -0.447695 0.111939)
(2.51597e-05 -0.0625442 -0.998042)
(0.948239 -0.273602 0.161196)
(-1.09786e-05 -0.0626323 -0.998037)
(-0.97165 0.122289 -0.202342)
(0.00147752 -0.983096 -0.183084)
(-0.975525 -0.00218801 -0.219877)
(-0.000100635 -0.0626182 -0.998038)
(-0.931975 -0.260859 -0.251745)
(-0.0322106 0.164064 -0.985924)
(-0.63235 0.129926 -0.763709)
(-0.00199228 -0.995081 -0.0990492)
(-0.354182 0.144162 -0.923998)
(-0.0143224 -0.995544 -0.0932004)
(-0.859153 0.140456 -0.492065)
(-0.170051 -0.984771 0.0361739)
(-0.00439041 -0.0782318 0.996926)
(0.00105929 -0.983177 -0.182651)
(-0.0337368 -0.165409 -0.985648)
(-1 0 0)
(-0.0595585 -0.904941 -0.421347)
(-1 0 0)
(-0.0433637 -0.948929 0.312496)
(-1 0 0)
(-0.0645233 -0.807477 -0.58636)
(-1 0 0)
(-0.00690183 -0.747106 0.664669)
(-1 0 0)
(0.00464622 -0.568504 0.822667)
(-1 0 0)
(0.00480059 -0.354267 0.935132)
(-1 0 0)
(-0.067154 -0.678543 -0.731485)
(-1 0 0)
(-0.0481452 -0.990403 0.129554)
(-1 0 0)
(-0.00464899 -0.020733 0.999774)
(0.00136923 -0.983113 -0.182995)
(-0.00426528 -0.0209972 0.99977)
(0.00137553 -0.983112 -0.183001)
(0.00110937 -0.983164 -0.182724)
(-0.0369823 -0.872275 0.487615)
(-1 0 0)
(-0.0512757 -0.99705 -0.0571136)
(-0.0545547 -0.968386 -0.243416)
(-1 0 0)
(0.0457135 -0.469522 -0.881736)
(-1 0 0)
)

// edgeNormals

78
(
2(34 35)
2(36 37)
2(38 39)
2(33 40)
2(41 42)
2(43 44)
2(45 46)
2(47 48)
2(49 50)
2(6 40)
2(51 52)
2(53 54)
2(55 56)
2(57 58)
2(59 60)
2(61 62)
2(63 64)
2(65 66)
2(67 68)
2(69 68)
2(70 38)
2(70 39)
2(71 72)
2(73 74)
2(75 76)
2(77 78)
2(79 80)
2(81 82)
2(83 84)
2(85 86)
2(87 88)
2(89 90)
2(91 92)
2(93 94)
2(95 96)
2(97 98)
2(99 100)
2(35 101)
2(102 103)
2(104 96)
2(105 106)
2(107 108)
1(0)
1(1)
1(2)
1(3)
1(4)
1(5)
1(6)
1(7)
1(8)
1(9)
1(10)
1(11)
1(12)
1(13)
1(14)
1(15)
1(16)
1(17)
1(18)
1(19)
1(20)
1(21)
1(22)
1(23)
1(24)
1(25)
1(26)
1(27)
1(28)
1(29)
1(30)
1(31)
1(31)
1(32)
1(32)
1(33)
)

// featurePointNormals

8
(
5(38 39 41 77 78)
4(4 7 19 25)
3(63 64 5)
4(36 37 9 29)
5(34 35 6 40 101)
3(33 40 6)
5(33 40 65 66 67)
3(38 39 70)
)

// featurePointEdges

8
(
3(4 25 2)
4(46 49 61 67)
3(16 47 77)
3(1 51 71)
3(9 0 37)
4(9 3 48 77)
3(17 18 3)
3(20 21 2)
)

// regionEdges

36
(
42
43
44
45
46
47
48
49
50
51
52
53
54
55
56
57
58
59
60
61
62
63
64
65
66
67
68
69
70
71
72
73
74
75
76
77
)



// ************************************************************************* //
