/*--------------------------------*- C++ -*----------------------------------*\
| =========                 |                                                 |
| \\      /  F ield         | OpenFOAM: The Open Source CFD Toolbox           |
|  \\    /   O peration     | Version:  2.2.x                                 |
|   \\  /    A nd           | Web:      www.OpenFOAM.org                      |
|    \\/     M anipulation  |                                                 |
\*---------------------------------------------------------------------------*/
FoamFile
{
    version     2.0;
    format      ascii;
    class       extendedFeatureEdgeMesh;
    location    "constant/extendedFeatureEdgeMesh";
    object      upperarm_right_back.extendedFeatureEdgeMesh;
}
// * * * * * * * * * * * * * * * * * * * * * * * * * * * * * * * * * * * * * //

// points

89
(
(1.59639 3.58855 1.09729)
(1.65781 3.54074 1.39587)
(1.65781 3.55032 1.39686)
(1.61396 3.59682 1.32539)
(1.64254 3.55918 1.29713)
(1.65781 3.58977 1.31777)
(1.65781 3.57911 1.3871)
(1.64274 3.55033 1.29693)
(1.65781 3.55032 1.29686)
(1.59317 3.61459 1.09565)
(1.52733 3.58778 1.09733)
(1.59678 3.59734 1.09674)
(1.65781 3.5408 1.39528)
(1.59565 3.58854 1.09729)
(1.65781 3.56002 1.39585)
(1.63886 3.57529 1.30077)
(1.64125 3.56741 1.29841)
(1.615 3.59679 1.32437)
(1.60333 3.59377 1.33591)
(1.60913 3.59621 1.33017)
(1.59365 3.58427 1.34548)
(1.59811 3.5897 1.34107)
(1.58735 3.57019 1.35171)
(1.59003 3.57769 1.34905)
(1.62073 3.5956 1.31869)
(1.62616 3.59273 1.31333)
(1.63112 3.58829 1.30842)
(1.65781 3.5691 1.39296)
(1.63543 3.58238 1.30416)
(1.58567 3.56199 1.35336)
(1.65781 3.59085 1.3194)
(1.65781 3.59055 1.37478)
(1.65781 3.58458 1.38225)
(1.65781 3.59792 1.33728)
(1.65781 3.59882 1.34691)
(1.65781 3.57736 1.38837)
(1.65781 3.59507 1.36615)
(1.65781 3.59789 1.35664)
(1.65781 3.56901 1.30072)
(1.65781 3.57739 1.30537)
(1.65781 3.5599 1.29785)
(1.65781 3.59524 1.32801)
(1.65781 3.58481 1.3117)
(1.63866 3.57579 1.30096)
(1.63508 3.58296 1.30451)
(1.62546 3.5932 1.31402)
(1.61986 3.5959 1.31956)
(1.6306 3.58885 1.30894)
(1.64116 3.56777 1.29849)
(1.59572 3.60607 1.09619)
(1.60821 3.59595 1.33108)
(1.58725 3.56984 1.3518)
(1.59329 3.58373 1.34583)
(1.58983 3.57722 1.34926)
(1.60259 3.59331 1.33664)
(1.59757 3.58916 1.3416)
(1.65781 3.56177 1.29827)
(1.65781 3.56569 1.39429)
(1.65781 3.57246 1.30237)
(1.65781 3.58196 1.30897)
(1.65781 3.58605 1.38068)
(1.65781 3.59169 1.37296)
(1.65781 3.59449 1.3262)
(1.65781 3.59584 1.36413)
(1.65781 3.59751 1.33531)
(1.65781 3.59824 1.35455)
(1.65781 3.59878 1.34486)
(1.93178 3.55436 0.0916016)
(1.93161 3.55431 0.0916016)
(1.93165 3.54566 0.0916016)
(1.93182 3.54692 0.0916016)
(1.64256 3.55899 1.29711)
(1.63568 3.54086 1.39456)
(1.59745 3.54268 1.37246)
(1.58648 3.54005 1.35256)
(1.61488 3.5413 1.38666)
(1.64655 3.55033 1.29691)
(1.65035 3.55032 1.2969)
(1.57743 3.63423 1.09442)
(1.58386 3.62908 1.09475)
(1.56181 3.63874 1.09414)
(1.57003 3.63756 1.09421)
(1.58915 3.62243 1.09516)
(1.52723 3.602 1.09644)
(1.55511 3.63796 1.09419)
(1.54892 3.63574 1.09433)
(1.54333 3.63225 1.09455)
(1.53096 3.61583 1.09558)
(1.53842 3.62766 1.09483)
)

// edges

99
(
(4 71)
(71 7)
(12 8)
(13 10)
(11 13)
(1 72)
(73 74)
(75 73)
(72 75)
(76 77)
(7 76)
(77 8)
(78 79)
(80 81)
(82 9)
(81 78)
(79 82)
(10 83)
(84 80)
(11 0)
(0 7)
(74 10)
(85 84)
(86 85)
(83 87)
(87 88)
(88 86)
(13 0)
(2 1)
(14 2)
(15 16)
(3 17)
(18 19)
(20 21)
(22 23)
(21 18)
(24 25)
(25 26)
(16 4)
(27 14)
(19 3)
(23 20)
(17 24)
(26 28)
(28 15)
(29 22)
(5 30)
(31 32)
(33 34)
(6 35)
(36 31)
(34 37)
(38 39)
(40 38)
(35 27)
(8 40)
(37 36)
(30 41)
(39 42)
(32 6)
(41 33)
(42 5)
(43 44)
(45 46)
(44 47)
(46 3)
(47 45)
(4 48)
(48 43)
(9 49)
(49 11)
(3 50)
(51 29)
(52 53)
(50 54)
(53 51)
(54 55)
(55 52)
(2 12)
(8 56)
(57 2)
(56 58)
(6 57)
(58 59)
(60 6)
(59 5)
(61 60)
(5 62)
(63 61)
(62 64)
(65 63)
(64 66)
(66 65)
(9 11)
(67 68)
(68 69)
(69 70)
(70 67)
(12 1)
)

// concaveStart mixedStart nonFeatureStart
0 1 14
// internalStart flatStart openStart multipleStart
5 28 28 99
// normals

114
(
(0.0479194 0.102341 -0.993595)
(0.0612169 -0.103202 -0.992775)
(-0.456728 -0.379715 0.804498)
(-0.0338686 -0.999409 -0.00592432)
(0.206823 -0.957989 -0.198698)
(0.520047 -0.753309 -0.402587)
(0.736213 -0.444411 -0.510382)
(0.372636 -0.874001 -0.311872)
(-0.285376 -0.934827 0.211328)
(-0.405336 -0.842792 0.354125)
(-0.32077 -0.194879 0.926892)
(0.070781 -0.302437 -0.950538)
(0.0484272 -0.99572 -0.0787147)
(0.637825 -0.607633 -0.473246)
(-0.135854 -0.988193 0.0708367)
(-0.48523 -0.71614 0.501693)
(-0.508805 -0.559079 0.654635)
(0.804507 -0.271031 -0.528498)
(0.184728 -0.818174 0.544488)
(0.074897 -0.778714 -0.622892)
(0.0629818 -0.993675 0.0929645)
(0.114662 -0.583711 -0.803825)
(0.0709299 -0.884022 -0.462032)
(0.0644807 -0.993332 -0.0955687)
(0.0705545 -0.48395 0.872247)
(0.0594324 -0.300419 0.951954)
(0.0757998 -0.484674 -0.871404)
(0.00437457 -0.102357 0.994738)
(0.0666883 -0.956679 -0.283404)
(0.0594761 -0.889352 0.453339)
(0.0711043 -0.64756 0.75869)
(0.0763108 -0.66125 -0.746275)
(0.0611439 -0.958908 0.277049)
(0.0607944 -0.772603 0.631972)
(-0.869493 -0.483818 0.0995088)
(-0.47727 -0.876933 -0.0565891)
(-0.776143 -0.628464 0.0513261)
(-0.263384 -0.957905 -0.114219)
(-0.646989 -0.762499 -0.000945966)
(-0.96591 -0.183966 0.18214)
(-0.931361 -0.334809 0.143072)
(-0.948267 -0.273489 0.161228)
(-0.973665 -0.104961 0.202383)
(-0.0192228 -0.985188 -0.170396)
(0.938774 -0.238149 -0.248973)
(0.784035 -0.559261 -0.269289)
(0.230444 -0.94855 -0.217138)
(0.878544 -0.397809 -0.264402)
(0.458991 -0.852688 -0.249502)
(0.645437 -0.715851 -0.266399)
(1 0 -0)
(1 0 0)
(1 0 0)
(1 0 0)
(1 0 0)
(1 0 0)
(1 0 0)
(1 0 0)
(1 0 0)
(1 0 0)
(1 0 0)
(1 0 0)
(1 0 0)
(1 0 0)
(-0.00018371 -0.0626191 -0.998037)
(0 -0 1)
(0 0 1)
(0.0003934 -0.995357 -0.0962473)
(-0.503553 -0.119631 0.855642)
(-0.973384 -0.10915 0.201521)
(0.00471823 -0.0207886 0.999773)
(-0.975602 -0.0251547 0.218102)
(0.000396295 -0.995349 -0.0963356)
(2.37627e-07 -0.0625753 -0.99804)
(0.010772 -0.981642 -0.190428)
(-0.000204876 0.0626687 0.998034)
(0.0593278 0.129338 -0.989824)
(0.859156 0.140464 -0.492057)
(0.170052 -0.984771 0.0361752)
(0.63199 0.139207 -0.762371)
(0.00199227 -0.995081 -0.0990492)
(0.354606 0.130365 -0.925883)
(0.0143224 -0.995544 -0.0932004)
(0.00444891 -0.0209126 0.999771)
(-0.00137252 -0.983112 -0.182998)
(-0.00110937 -0.983164 -0.182724)
(-0.00105929 -0.983177 -0.182651)
(-0.624892 -0.780644 -0.0102611)
(4.00244e-05 -0.0625702 -0.998041)
(-0.139055 -0.978826 -0.150209)
(1.09747e-05 -0.0625911 -0.998039)
(-0.887105 -0.447795 0.11191)
(-0.000169068 -0.0626177 -0.998038)
(-0.406538 -0.910027 -0.0811045)
(8.66082e-05 -0.0625517 -0.998042)
(-0.782721 -0.619955 0.0548033)
(-3.70799e-05 -0.0625925 -0.998039)
(0.975384 -0.00635056 -0.220422)
(8.30817e-05 -0.062586 -0.99804)
(0.111166 -0.97317 -0.201449)
(-4.41683e-05 -0.0626281 -0.998037)
(-0.969969 0.0577425 0.236276)
(0.0106985 -0.981646 -0.190412)
(0.971656 0.122295 -0.202308)
(-0.00181391 -0.983034 -0.183412)
(0.323201 -0.916684 -0.235014)
(5.54602e-06 -0.0625875 -0.998039)
(0.504811 -0.824347 -0.256159)
(-1.22182e-05 -0.062605 -0.998038)
(0.929751 -0.267284 -0.253224)
(0.807418 -0.525904 -0.267399)
(-1.68874e-05 -0.0626157 -0.998038)
(0.650039 -0.711515 -0.266825)
(2.53224e-06 -0.0625874 -0.998039)
)

// edgeNormals

99
(
2(68 69)
2(70 71)
2(50 72)
2(73 74)
2(64 75)
2(76 67)
2(77 78)
2(79 80)
2(81 82)
2(83 84)
2(70 85)
2(27 86)
2(87 88)
2(89 90)
2(91 92)
2(93 94)
2(95 96)
2(97 98)
2(99 100)
2(101 75)
2(101 102)
2(103 104)
2(105 106)
2(107 108)
2(109 98)
2(110 111)
2(112 113)
2(75 102)
1(0)
1(1)
1(2)
1(3)
1(4)
1(5)
1(6)
1(7)
1(8)
1(9)
1(10)
1(11)
1(12)
1(13)
1(14)
1(15)
1(16)
1(17)
1(18)
1(19)
1(20)
1(21)
1(22)
1(23)
1(24)
1(25)
1(26)
1(27)
1(28)
1(29)
1(30)
1(31)
1(32)
1(33)
1(34)
1(35)
1(36)
1(37)
1(38)
1(39)
1(40)
1(41)
1(42)
1(43)
1(44)
1(45)
1(46)
1(47)
1(48)
1(49)
1(50)
1(51)
1(52)
1(53)
1(54)
1(55)
1(56)
1(57)
1(58)
1(59)
1(60)
1(61)
1(62)
1(63)
1(63)
1(64)
1(65)
1(65)
1(66)
1(66)
1(67)
)

// featurePointNormals

14
(
3(101 75 102)
3(76 67 0)
3(0 1 50)
4(3 12 37 43)
4(68 69 10 39)
3(18 33 57)
3(21 31 54)
5(70 71 85 101 102)
4(50 72 27 86)
3(91 92 41)
5(73 74 97 103 104)
4(64 75 101 42)
2(50 72)
3(73 74 75)
)

// featurePointEdges

14
(
3(19 20 27)
3(5 28 98)
4(28 29 78 80)
4(31 40 65 71)
3(0 38 67)
4(46 61 85 87)
4(49 59 82 84)
3(1 10 20)
4(11 2 55 79)
3(14 69 93)
3(17 21 3)
4(19 4 70 93)
3(2 78 98)
3(3 4 27)
)

// regionEdges

71
(
28
29
30
31
32
33
34
35
36
37
38
39
40
41
42
43
44
45
46
47
48
49
50
51
52
53
54
55
56
57
58
59
60
61
62
63
64
65
66
67
68
69
70
71
72
73
74
75
76
77
78
79
80
81
82
83
84
85
86
87
88
89
90
91
92
93
94
95
96
97
98
)



// ************************************************************************* //
