/*--------------------------------*- C++ -*----------------------------------*\
| =========                 |                                                 |
| \\      /  F ield         | OpenFOAM: The Open Source CFD Toolbox           |
|  \\    /   O peration     | Version:  2.2.x                                 |
|   \\  /    A nd           | Web:      www.OpenFOAM.org                      |
|    \\/     M anipulation  |                                                 |
\*---------------------------------------------------------------------------*/
FoamFile
{
    version     2.0;
    format      ascii;
    class       extendedFeatureEdgeMesh;
    location    "constant/extendedFeatureEdgeMesh";
    object      waist_right_front.extendedFeatureEdgeMesh;
}
// * * * * * * * * * * * * * * * * * * * * * * * * * * * * * * * * * * * * * //

// points

162
(
(1.78788 3.44641 0.861345)
(1.80117 3.44206 0.868218)
(1.8012 3.44263 0.866011)
(1.79065 3.44645 0.859341)
(1.66375 3.52631 0.972273)
(1.68992 3.5124 1.07268)
(1.69371 3.48798 1.06738)
(1.6911 3.50013 1.06967)
(1.67202 3.50523 0.966506)
(1.66825 3.51484 0.969135)
(1.66463 3.52407 0.971659)
(1.69022 3.52474 1.07547)
(1.65881 3.54924 0.97293)
(1.66321 3.52883 0.972345)
(1.80108 3.43194 0.912206)
(1.80114 3.44153 0.870472)
(1.72528 3.45685 0.905859)
(1.71564 3.45986 0.91838)
(1.70913 3.4633 0.926467)
(1.75273 3.46017 0.867002)
(1.7366 3.45637 0.890333)
(1.73164 3.45658 0.897131)
(1.77574 3.44742 0.86895)
(1.80059 3.42545 0.954772)
(1.80104 3.44154 0.870467)
(1.80094 3.44155 0.870462)
(1.80097 3.42167 1.01109)
(1.80093 3.4234 1.06752)
(1.80132 3.48106 0.811983)
(1.80142 3.46716 0.823489)
(1.80143 3.46711 0.823571)
(1.79999 3.44722 0.853224)
(1.80082 3.5142 0.797632)
(1.8011 3.49695 0.803202)
(1.80112 3.49691 0.803245)
(1.78958 3.55032 0.796602)
(1.78608 3.55032 0.796602)
(1.80131 3.48112 0.811907)
(1.80142 3.45572 0.83739)
(1.80143 3.45566 0.837511)
(1.80141 3.45573 0.837366)
(1.79656 3.55032 0.796602)
(1.79916 3.55032 0.796602)
(1.7983 3.55032 0.796602)
(1.80133 3.44705 0.85328)
(1.80127 3.44625 0.855189)
(1.80126 3.44543 0.857305)
(1.79307 3.55032 0.796602)
(1.79958 3.55032 0.796602)
(1.80122 3.44544 0.857266)
(1.80126 3.44712 0.853084)
(1.80116 3.44207 0.868168)
(1.80122 3.44467 0.859404)
(1.80128 3.44542 0.857342)
(1.80116 3.44266 0.865913)
(1.80121 3.44394 0.861567)
(1.8013 3.44711 0.853115)
(1.80122 3.44626 0.855153)
(1.80117 3.44395 0.861533)
(1.80114 3.44546 0.857243)
(1.80116 3.44468 0.859374)
(1.67665 3.49762 0.962155)
(1.69455 3.47437 0.94365)
(1.68076 3.49086 0.958288)
(1.8 3.55032 1.07672)
(1.8 3.55032 0.796602)
(1.69007 3.52268 1.07506)
(1.69286 3.49193 1.06813)
(1.71089 3.46207 0.924362)
(1.73947 3.45625 0.886397)
(1.80103 3.42542 0.954766)
(1.7638 3.45299 0.86802)
(1.78833 3.44358 0.869775)
(1.79381 3.42608 0.954811)
(1.79742 3.42571 0.954804)
(1.80034 3.44161 0.870432)
(1.79953 3.44169 0.870392)
(1.80013 3.42548 0.954778)
(1.80074 3.44157 0.870452)
(1.79923 3.42555 0.954788)
(1.79471 3.44233 0.87014)
(1.77234 3.42992 0.954219)
(1.78662 3.42705 0.954736)
(1.79792 3.44188 0.87031)
(1.8008 3.51418 0.797623)
(1.8004 3.5322 0.795385)
(1.80125 3.44465 0.859443)
(1.80132 3.4471 0.853163)
(1.80131 3.4471 0.853137)
(1.80118 3.44328 0.863721)
(1.80118 3.44361 0.862623)
(1.8012 3.44327 0.863755)
(1.80116 3.44297 0.8648)
(1.80122 3.44326 0.863787)
(1.8012 3.44372 0.862293)
(1.80118 3.44296 0.864825)
(1.80137 3.46719 0.823429)
(1.80126 3.48114 0.811865)
(1.80137 3.45575 0.83732)
(1.80077 3.51419 0.797613)
(1.80035 3.53221 0.795381)
(1.80075 3.51419 0.797607)
(1.80105 3.49697 0.803176)
(1.72588 3.45776 0.90479)
(1.68389 3.48711 0.954964)
(1.68244 3.48885 0.956505)
(1.93178 3.55436 0.0916016)
(1.93161 3.55431 0.0916016)
(1.93165 3.54566 0.0916016)
(1.93182 3.54692 0.0916016)
(1.68327 3.48673 0.955929)
(1.80109 3.44154 0.87047)
(1.80081 3.42543 0.954769)
(1.80116 3.44236 0.867036)
(1.80121 3.44713 0.853066)
(1.69681 3.4719 0.941193)
(1.80044 3.53219 0.795396)
(1.70304 3.46462 1.06558)
(1.8006 3.43196 0.912215)
(1.74735 3.43231 1.06941)
(1.77353 3.42476 1.06918)
(1.72352 3.44568 1.06821)
(1.7775 3.44716 0.868059)
(1.77837 3.44703 0.867606)
(1.78658 3.51966 0.804136)
(1.76492 3.46888 0.847731)
(1.7934 3.53316 0.797189)
(1.78453 3.50574 0.811027)
(1.77507 3.48211 0.830092)
(1.78501 3.44649 0.86332)
(1.80115 3.4418 0.869321)
(1.80119 3.44264 0.865967)
(1.80118 3.44265 0.865938)
(1.79332 3.44663 0.85732)
(1.78203 3.4467 0.865253)
(1.77894 3.44701 0.867133)
(1.80117 3.44431 0.86045)
(1.80115 3.44506 0.858305)
(1.80113 3.44586 0.856188)
(1.79275 3.44615 0.85886)
(1.79348 3.44619 0.858354)
(1.77662 3.44729 0.868507)
(1.79126 3.44609 0.859868)
(1.79201 3.44612 0.859365)
(1.78975 3.44609 0.86087)
(1.79051 3.44609 0.860369)
(1.78342 3.44642 0.864799)
(1.78424 3.44635 0.864318)
(1.7826 3.44651 0.865277)
(1.78821 3.44612 0.861866)
(1.78898 3.4461 0.861369)
(1.77923 3.44691 0.867149)
(1.78008 3.4468 0.866688)
(1.78505 3.44629 0.863833)
(1.78585 3.44623 0.863345)
(1.78664 3.44619 0.862855)
(1.78743 3.44615 0.862362)
(1.78093 3.44669 0.866222)
(1.78177 3.44659 0.865751)
(1.79995 3.55032 0.796602)
(1.79989 3.55032 0.796602)
(1.79979 3.55032 0.796602)
)

// edges

224
(
(9 4)
(4 12)
(15 111)
(20 16)
(25 23)
(24 25)
(111 24)
(24 112)
(46 44)
(50 49)
(113 51)
(45 52)
(44 51)
(58 49)
(22 31)
(114 59)
(60 57)
(22 54)
(15 25)
(15 24)
(115 62)
(63 61)
(12 36)
(64 27)
(116 65)
(65 64)
(64 11)
(63 8)
(6 117)
(5 7)
(8 9)
(9 10)
(12 11)
(13 12)
(14 15)
(18 115)
(20 21)
(24 14)
(118 23)
(25 118)
(112 14)
(119 120)
(121 119)
(117 121)
(27 26)
(120 27)
(122 123)
(32 116)
(36 124)
(125 19)
(30 38)
(42 43)
(45 46)
(35 126)
(41 47)
(124 127)
(128 125)
(45 50)
(49 45)
(129 0)
(52 46)
(52 53)
(130 15)
(44 1)
(1 130)
(51 1)
(44 2)
(2 113)
(131 2)
(132 131)
(54 132)
(0 3)
(3 133)
(134 135)
(114 57)
(57 50)
(134 129)
(22 135)
(44 53)
(136 58)
(31 3)
(0 31)
(57 59)
(49 52)
(49 60)
(60 136)
(137 60)
(138 59)
(49 57)
(139 140)
(22 141)
(142 143)
(144 145)
(146 147)
(148 146)
(149 150)
(151 152)
(153 154)
(155 156)
(154 155)
(150 144)
(156 149)
(157 158)
(158 148)
(143 139)
(147 153)
(123 151)
(141 122)
(145 142)
(152 157)
(127 128)
(61 9)
(8 61)
(159 160)
(65 159)
(161 48)
(160 161)
(66 5)
(10 4)
(67 6)
(7 67)
(11 66)
(4 13)
(17 68)
(68 18)
(19 69)
(70 14)
(16 17)
(69 20)
(21 16)
(22 71)
(71 19)
(72 22)
(73 74)
(75 76)
(77 23)
(25 78)
(79 77)
(78 75)
(74 79)
(80 72)
(81 82)
(76 83)
(82 73)
(83 80)
(23 81)
(26 70)
(28 29)
(29 30)
(30 28)
(33 34)
(34 32)
(84 33)
(85 84)
(35 36)
(34 37)
(37 28)
(28 34)
(19 22)
(38 39)
(39 30)
(30 40)
(40 38)
(47 35)
(15 44)
(44 54)
(53 86)
(86 55)
(52 55)
(87 88)
(44 87)
(55 44)
(58 52)
(89 90)
(91 89)
(92 93)
(93 91)
(94 58)
(90 94)
(95 92)
(54 95)
(96 97)
(25 22)
(56 98)
(88 39)
(39 56)
(98 96)
(99 85)
(100 99)
(101 100)
(102 101)
(97 102)
(19 20)
(21 103)
(103 17)
(17 18)
(62 104)
(104 105)
(105 63)
(10 13)
(106 107)
(107 108)
(108 109)
(109 106)
(23 14)
(15 56)
(56 40)
(40 29)
(29 37)
(37 33)
(7 6)
(11 5)
(47 36)
(110 63)
(62 110)
(26 23)
(32 33)
(43 41)
(55 53)
(48 42)
(64 42)
(43 64)
(64 48)
(41 64)
)

// concaveStart mixedStart nonFeatureStart
0 4 66
// internalStart flatStart openStart multipleStart
28 117 117 215
// normals

247
(
(0.154932 0.985776 0.0651316)
(0.0738269 0.995065 0.066301)
(0.999926 0.0106169 -0.0060175)
(-0.787218 0.178168 0.590376)
(-0.485613 0.261708 0.83408)
(0.999868 0.0162192 0.000841919)
(0 -0.0599838 0.998199)
(0 1 0)
(0 1 0)
(-0.997335 -0.0623988 -0.0378148)
(-0.690416 0.686489 0.228163)
(-0.997491 -0.060295 -0.037084)
(0 -0.0662478 0.997803)
(0 1 0)
(0 1 0)
(0 1 0)
(0 1 0)
(0 1 0)
(0.968211 0.0431737 -0.246381)
(0.634992 0.425575 -0.644725)
(0.957176 0.237757 -0.165185)
(0.957327 0.237062 -0.165307)
(0.970284 -0.0235835 -0.240818)
(0.382541 0.108671 -0.917525)
(0.482712 0.873683 0.0605598)
(0.581636 0.813366 0.0116703)
(0.424618 0.786005 0.449328)
(0.0753967 0.985626 0.151182)
(0.512489 0.836658 0.193281)
(0.468385 0.825117 0.315908)
(-0.283468 0.929718 -0.235097)
(0.369664 0.854392 0.365187)
(0.460044 0.771213 0.439989)
(0.254745 0.906025 0.337969)
(0.100559 0.984003 0.147057)
(0.0873471 0.970362 0.225317)
(0.075318 0.985698 0.150752)
(0.0796452 0.971352 0.2239)
(0.0789928 0.985436 0.150584)
(0.0829195 0.970976 0.224345)
(0.0855508 0.984991 0.14991)
(0.171593 0.953396 0.248178)
(0.191387 0.972588 0.132078)
(0.100277 0.968595 0.227528)
(0.130794 0.981122 0.142451)
(0.124178 0.964506 0.233041)
(0.0748864 0.994985 0.0663123)
(-0.981149 0.119069 0.152217)
(-0.18856 0.116874 0.975082)
(0 0.238642 0.971108)
(-0.951649 0.138818 0.274031)
(0.362878 0.741285 0.564639)
(-0.964491 0.203898 0.167878)
(-0.702654 0.54903 0.452596)
(0 0.0342029 0.999415)
(-0.999875 -0.00764154 -0.0138519)
(-0.0285058 0.944144 0.328298)
(-0.25665 0.893786 0.367801)
(-0.391127 0.852359 0.347136)
(0.773707 0.595611 0.215929)
(0.0392306 0.956476 0.289161)
(0.0893311 0.956317 0.278348)
(-0.0359404 0.960977 0.274284)
(-0.040073 0.95375 0.297917)
(0.0545571 0.947478 0.315132)
(0.190274 0.965465 0.177971)
(0.192464 0.944963 0.264579)
(-0.00357018 0.638024 0.770008)
(-0.206515 -0.948445 -0.240424)
(-0.122718 0.871092 0.475541)
(-0.228186 0.854814 0.466072)
(0.0138684 0.771778 0.635741)
(-0.0817043 0.120649 0.989327)
(-0.077631 0.120604 0.989661)
(-0.0465747 0.306605 0.950697)
(-0.0250942 0.480845 0.876446)
(-0.800593 -0.155307 -0.578732)
(-0.800553 -0.155524 -0.57873)
(-0.800479 -0.155984 -0.578707)
(-0.800494 -0.155871 -0.578717)
(-0.800507 -0.155782 -0.578723)
(-0.800485 -0.155847 -0.578735)
(-0.800508 -0.155778 -0.578723)
(-0.8005 -0.155808 -0.578726)
(0 -0 1)
(0 0 1)
(0.999928 -0.00559973 0.0105882)
(0.999959 -0.00449489 0.00788873)
(0.999978 -0.00141002 0.00646496)
(0.999981 0.00449301 0.00413201)
(0.999948 0.00990294 0.00235523)
(0.999899 0.0141409 0.00124754)
(0.0199601 -0.181322 0.983221)
(0.040454 -0.221127 0.974406)
(0 1 0)
(0.82946 0.552223 -0.0839389)
(0.699074 0.711261 -0.0735063)
(0.898347 0.401367 -0.178543)
(0.947615 0.210934 -0.239861)
(0.0886058 0.970725 0.223254)
(-0.0456776 0.0167484 0.998816)
(0.468377 0.82507 0.316043)
(0.0794555 0.979075 0.187345)
(-0.994377 0.104708 0.0158483)
(-0.103364 -0.827593 0.551729)
(0.0714706 0.972067 0.223559)
(0.995421 0.0933518 0.0205687)
(0.0743723 0.979466 0.187392)
(-0.766196 0.600391 0.229072)
(-0.142462 0.918584 0.368657)
(0.632727 0.716226 0.294409)
(-0.755055 0.610793 0.238376)
(-0.20702 -0.948599 -0.239379)
(-0.994825 0.0992974 0.0215266)
(0.848313 0.492115 0.195415)
(-0.7067 0.665376 0.24052)
(-0.265357 0.915273 0.303087)
(-0.737208 0.640457 0.215264)
(-0.476735 -0.491042 -0.72911)
(0.41392 0.656988 0.630108)
(0.550837 0.771019 0.319543)
(-0.493486 0.809947 0.31695)
(-0.605021 0.748186 0.272335)
(0.664123 0.696957 0.27054)
(0.194506 0.976215 0.0957678)
(-0.203014 -0.96011 -0.192289)
(-0.0786278 -0.971842 -0.222128)
(-0.800493 -0.155817 -0.578733)
(0.699055 0.711279 -0.0735085)
(-0.800499 -0.155805 -0.578728)
(0.351217 0.616373 -0.704791)
(-0.800504 -0.155784 -0.578726)
(0.217885 0.96224 0.163155)
(0.999973 0.00729099 0.000503317)
(0.0566246 -0.0717572 0.995814)
(0.9997 0.0244854 0)
(0 -0.0663749 0.997795)
(0 1 0)
(-0.227029 0.973823 0.0112842)
(0.829476 0.552199 -0.0839413)
(0.927813 0.372228 -0.024689)
(-0.0343295 -0.090571 0.995298)
(0.97535 0.136181 -0.173628)
(0.0449796 -0.233924 0.971214)
(0.898338 0.401387 -0.178541)
(0.80055 0.155847 0.578646)
(-0.800502 -0.155795 -0.578726)
(0.999982 0.00541923 0.00265953)
(0.58164 0.813364 0.0116062)
(-0.8005 -0.155801 -0.578728)
(0.0653132 0.986335 0.151252)
(0.277322 0.960677 0.013854)
(-0.00800833 -0.0582805 0.998268)
(0.487545 0.872275 0.0379048)
(-0.0676958 -0.0315845 0.997206)
(0.678202 0.73482 0.00902142)
(-0.120768 0.00757414 0.992652)
(0.0477791 0.99839 -0.0305575)
(0.434626 0.610758 0.661872)
(0.194427 0.976087 0.0972218)
(-0.404507 0.104428 0.908553)
(0.99978 0.0209706 0.000226637)
(-0.82646 -0.14723 -0.543404)
(-0.801994 -0.154005 -0.577138)
(0 -0.0650712 0.997881)
(0.620422 0.164523 0.766817)
(0 -0.0392325 0.99923)
(0.483937 0.329937 0.810523)
(0.496665 0.532823 0.685145)
(-0.802412 -0.153599 -0.576665)
(-0.0304113 0.922788 0.384106)
(0.263084 0.901712 0.343078)
(-0.557422 0.149422 -0.816673)
(-0.0707327 0.938435 0.338137)
(-0.999483 -0.0254171 -0.0196741)
(-0.207232 -0.950969 -0.229591)
(-0.207081 -0.94931 -0.236492)
(-0.968777 -0.230708 -0.0908072)
(-0.219926 0.922136 0.318274)
(-0.207352 -0.94465 -0.254247)
(-0.206915 -0.94659 -0.247292)
(-0.206724 0.924811 0.319358)
(-0.202752 -0.96083 -0.188935)
(0.253928 0.893744 0.369786)
(-0.459506 0.634271 -0.621735)
(0.212814 0.90699 0.363428)
(-0.172038 0.975203 -0.139216)
(-0.51164 -0.360389 -0.779964)
(0.295284 0.894863 0.334706)
(0.0332944 0.922545 0.384451)
(0.296523 0.883248 0.363245)
(-0.544564 -0.172024 -0.820889)
(0.318894 0.875088 0.364043)
(0.0628028 0.94792 0.312254)
(-0.302727 0.892653 0.333956)
(-0.433047 0.851666 0.295188)
(0.286747 0.906882 0.308774)
(0.260129 0.910298 0.32201)
(0.0848147 0.930581 0.356126)
(0.419716 0.62412 0.659024)
(0.151388 0.942754 0.297148)
(0.442264 0.5841 0.680611)
(0.160836 0.947373 0.276797)
(0.461138 0.546389 0.69915)
(0.170114 0.95146 0.256488)
(0.459024 0.552904 0.695409)
(0.188407 0.966405 0.174823)
(0.457613 0.556305 0.693625)
(0.188906 0.968962 0.159456)
(0.468533 0.530078 0.706749)
(0.175892 0.955987 0.234842)
(0.441802 0.593973 0.672315)
(0.195612 0.972631 0.125395)
(0.463209 0.542788 0.700584)
(0.186431 0.962236 0.198357)
(0.468346 0.530529 0.706534)
(0.179717 0.960809 0.211064)
(0.467527 0.532481 0.705608)
(0.185173 0.960505 0.207706)
(0.46523 0.537505 0.703313)
(0.17309 0.953548 0.246549)
(0.4689 0.529229 0.707142)
(0.177935 0.958238 0.223874)
(0.449142 0.576582 0.682514)
(0.188631 0.972599 0.135905)
(0.451881 0.570065 0.68617)
(0.188945 0.970295 0.151086)
(0.435037 0.597469 0.673627)
(0.15651 0.945005 0.287177)
(0.463921 0.541078 0.701435)
(0.187835 0.964835 0.183882)
(0.438237 0.602336 0.667188)
(0.19519 0.974353 0.11197)
(0.431586 0.617817 0.657294)
(0.193457 0.977554 0.0834458)
(0.45724 0.554548 0.695275)
(0.166414 0.949347 0.266545)
(0.446071 0.583882 0.678308)
(0.195724 0.971087 0.136685)
(0.569759 0.365486 0.736067)
(-0.786098 -0.165496 -0.595534)
(-0.800503 -0.155792 -0.578726)
(0 -0.0669865 0.997754)
(0 1 0)
(0 -0.0671121 0.997745)
(0 -0.0672467 0.997736)
(0 1 0)
)

// edgeNormals

224
(
2(97 19)
2(98 23)
2(99 100)
2(101 30)
2(102 103)
2(102 104)
2(105 100)
2(106 107)
2(108 109)
2(110 111)
2(112 113)
2(114 115)
2(116 113)
2(117 59)
2(118 119)
2(120 121)
2(122 123)
2(124 125)
2(126 104)
2(104 100)
2(127 128)
2(129 130)
2(131 132)
2(133 134)
2(135 136)
2(135 137)
2(93 138)
2(139 130)
2(140 141)
2(142 143)
2(144 145)
2(19 146)
2(98 132)
2(23 131)
2(99 147)
2(148 149)
2(30 76)
2(105 106)
2(103 36)
2(103 37)
2(106 150)
2(151 152)
2(153 154)
2(155 156)
2(157 133)
2(157 134)
2(158 159)
2(160 161)
2(49 162)
2(51 163)
2(52 53)
2(164 15)
2(108 114)
2(54 165)
2(166 17)
2(167 162)
2(168 169)
2(110 170)
2(110 115)
2(171 172)
2(114 173)
2(173 10)
2(55 126)
2(174 116)
2(174 175)
2(116 176)
2(177 178)
2(177 179)
2(178 180)
2(181 182)
2(56 125)
2(183 184)
2(185 186)
2(187 188)
2(189 120)
2(189 111)
2(190 191)
2(192 118)
2(11 109)
2(117 193)
2(184 186)
2(184 172)
2(194 120)
2(115 59)
2(195 123)
2(195 196)
2(122 197)
2(121 198)
2(123 111)
2(199 200)
2(119 124)
2(201 202)
2(203 204)
2(205 206)
2(207 208)
2(209 210)
2(211 212)
2(213 214)
2(215 216)
2(217 218)
2(219 220)
2(221 222)
2(223 224)
2(225 226)
2(227 228)
2(229 230)
2(231 232)
2(233 234)
2(235 236)
2(237 238)
2(239 240)
2(145 241)
2(145 130)
2(242 243)
2(136 137)
2(244 16)
2(245 246)
1(18)
1(19)
1(20)
1(21)
1(22)
1(23)
1(24)
1(25)
1(26)
1(27)
1(28)
1(29)
1(30)
1(31)
1(32)
1(33)
1(34)
1(35)
1(36)
1(37)
1(38)
1(39)
1(40)
1(41)
1(42)
1(43)
1(44)
1(45)
1(0)
1(46)
1(47)
1(47)
1(47)
1(3)
1(3)
1(4)
1(48)
1(49)
1(50)
1(50)
1(50)
1(51)
1(52)
1(52)
1(53)
1(53)
1(54)
1(55)
1(56)
1(9)
1(9)
1(10)
1(57)
1(58)
1(11)
1(59)
1(60)
1(61)
1(62)
1(62)
1(63)
1(64)
1(65)
1(66)
1(67)
1(68)
1(69)
1(70)
1(70)
1(71)
1(72)
1(72)
1(73)
1(74)
1(75)
1(76)
1(77)
1(78)
1(79)
1(80)
1(81)
1(82)
1(83)
1(84)
1(84)
1(85)
1(85)
1(86)
1(87)
1(88)
1(89)
1(90)
1(91)
1(92)
1(93)
1(94)
1(95)
1(96)
3(0 1 2)
3(3 4 5)
3(6 7 8)
3(9 10 11)
3(12 13 14)
3(15 13 14)
3(15 7 8)
3(13 16 14)
3(7 8 17)
)

// featurePointNormals

66
(
4(171 172 183 184)
4(174 116 175 176)
4(177 178 179 180)
4(183 184 185 186)
4(97 19 98 23)
4(142 143 18 93)
4(140 141 20 92)
4(142 143 21 92)
4(139 130 144 145)
4(97 19 145 146)
2(19 146)
5(93 138 98 132 22)
4(98 23 131 132)
2(23 131)
7(99 147 105 106 150 27 86)
7(99 100 126 104 147 55 87)
3(101 30 28)
3(24 28 78)
2(148 149)
5(51 163 26 32 76)
3(101 30 76)
2(30 76)
9(118 119 124 125 192 31 33 51 68)
7(102 103 36 0 86 1 2)
6(102 104 105 100 106 107)
6(102 103 104 126 37 68)
5(157 133 46 0 2)
3(133 134 157)
2(47 50)
3(47 89 90)
3(52 53 47)
5(118 119 184 186 172)
5(160 161 3 4 5)
4(3 4 91 5)
2(3 50)
3(54 165 49)
5(131 132 49 162 94)
3(50 90 91)
2(52 53)
2(52 70)
3(53 88 89)
3(166 17 6)
2(164 15)
3(164 15 6)

11
(
108
109
116
113
174
177
178
11
55
56
58
)

5(114 115 108 110 170)
4(108 109 114 173)
3(166 17 54)
2(244 16)
7(110 111 117 59 115 195 123)
4(110 111 170 189)
4(112 113 116 176)
5(114 115 173 10 59)
5(173 10 11 109 9)
4(124 125 56 66)
3(9 10 11)
4(69 70 87 88)
6(122 123 189 120 111 194)
4(117 59 193 63)
4(120 121 194 198)
5(122 123 195 196 197)
3(129 130 145)
2(127 128)
3(129 130 139)
6(133 134 135 137 93 138)
3(135 136 137)
)

// featurePointEdges

66
(
3(59 71 81)
3(63 64 65)
3(66 67 68)
3(71 72 80)
4(0 1 118 122)
3(29 117 211)
3(28 119 210)
3(29 120 210)
3(30 112 27)
4(30 0 31 111)
3(31 118 199)
4(32 26 121 211)
4(1 32 33 22)
3(33 122 199)
5(34 37 40 126 204)
7(2 34 62 18 19 164 205)
3(3 127 129)
4(123 127 194 195)
3(35 124 195)
5(49 125 131 158 192)
4(3 36 128 192)
3(36 129 193)
8(77 14 90 17 130 132 158 182)
6(4 38 215 135 145 204)
5(5 37 6 7 19)
6(4 5 39 18 136 182)
3(215 44 146)
3(44 45 23)
4(147 149 156 157)
4(147 148 207 208)
5(50 148 149 160 161)
3(80 81 14)
3(216 47 151)
4(216 150 152 209)
4(150 151 155 157)
3(53 154 163)
4(48 22 154 212)
4(155 156 208 209)
3(50 159 162)
4(159 160 184 185)
4(161 162 206 207)
3(54 217 223)
3(51 219 220)
3(51 217 221)
9(8 63 12 66 78 164 165 170 171)
4(52 57 58 11)
3(52 8 60)
3(54 163 212)
3(115 219 222)
6(58 9 13 83 84 88)
3(57 9 75)
3(10 12 65)
6(60 11 61 83 168 172)
4(61 218 78 166)
4(70 17 165 180)
4(218 167 168 171)
4(183 185 205 206)
5(74 75 82 16 88)
4(13 79 172 177)
3(82 15 87)
4(84 85 16 86)
3(111 112 21)
3(20 196 214)
4(21 27 198 213)
7(23 25 26 220 221 222 223)
3(24 25 114)
)

// regionEdges

107
(
215
216
217
218
219
220
221
222
223
117
118
119
120
121
122
123
124
125
126
127
128
129
130
131
132
133
134
135
136
137
138
139
140
141
142
143
144
145
146
147
148
149
150
151
152
153
154
155
156
157
158
159
160
161
162
163
164
165
166
167
168
169
170
171
172
173
174
175
176
177
178
179
180
181
182
183
184
185
186
187
188
189
190
191
192
193
194
195
196
197
198
199
200
201
202
203
204
205
206
207
208
209
210
211
212
213
214
)



// ************************************************************************* //
