/*--------------------------------*- C++ -*----------------------------------*\
| =========                 |                                                 |
| \\      /  F ield         | OpenFOAM: The Open Source CFD Toolbox           |
|  \\    /   O peration     | Version:  2.2.x                                 |
|   \\  /    A nd           | Web:      www.OpenFOAM.org                      |
|    \\/     M anipulation  |                                                 |
\*---------------------------------------------------------------------------*/
FoamFile
{
    version     2.0;
    format      ascii;
    class       extendedFeatureEdgeMesh;
    location    "constant/extendedFeatureEdgeMesh";
    object      waist_left_back.extendedFeatureEdgeMesh;
}
// * * * * * * * * * * * * * * * * * * * * * * * * * * * * * * * * * * * * * //

// points

76
(
(1.89009 3.6501 0.90725)
(1.94168 3.58015 0.965293)
(1.90492 3.54942 1.07764)
(1.94235 3.56506 0.970271)
(1.94228 3.56655 0.969778)
(1.94119 3.54924 0.97293)
(1.90784 3.63939 0.902535)
(1.81804 3.56977 0.797065)
(1.81392 3.55032 0.796602)
(1.83301 3.6048 0.808337)
(1.85439 3.62976 0.831195)
(1.86613 3.63755 0.845332)
(1.82448 3.5882 0.801003)
(1.84314 3.61875 0.818591)
(1.8 3.55032 0.796602)
(1.8 3.66199 0.911338)
(1.80093 3.59536 1.07937)
(1.8 3.66197 0.911404)
(1.8 3.66196 0.91147)
(1.93775 3.59998 0.954517)
(1.9417 3.58016 0.965315)
(1.93038 3.61727 0.939658)
(1.9202 3.63056 0.922009)
(1.8 3.55032 1.07672)
(1.88983 3.64362 0.876481)
(1.90675 3.54227 1.07738)
(1.90663 3.54228 1.07738)
(1.91628 3.61328 0.968412)
(1.93178 3.55436 0.0916016)
(1.93161 3.55431 0.0916016)
(1.93165 3.54566 0.0916016)
(1.93182 3.54692 0.0916016)
(1.90714 3.54067 1.07732)
(1.90716 3.54059 1.07732)
(1.90286 3.53779 1.07716)
(1.90803 3.53716 1.0772)
(1.83619 3.65833 0.944304)
(1.84257 3.64705 0.975734)
(1.88356 3.65314 0.908214)
(1.82824 3.6647 0.912426)
(1.88955 3.65055 0.917368)
(1.88378 3.65304 0.908515)
(1.89345 3.64839 0.906947)
(1.90056 3.56128 1.07684)
(1.81042 3.55032 0.796602)
(1.81217 3.55032 0.796602)
(1.80693 3.55032 0.796602)
(1.8017 3.55032 0.796602)
(1.80344 3.55032 0.796602)
(1.8 3.57379 0.792436)
(1.8 3.59742 0.795245)
(1.8 3.66353 0.886878)
(1.8 3.65811 0.86295)
(1.8 3.64987 0.839904)
(1.8 3.6369 0.819772)
(1.8 3.61895 0.80458)
(1.88072 3.58106 1.07905)
(1.85602 3.5939 1.08025)
(1.80116 3.6232 1.0309)
(1.80093 3.64465 0.979274)
(1.82879 3.59882 1.08037)
(1.84136 3.65083 0.968278)
(1.82803 3.66471 0.912399)
(1.80055 3.65474 0.945392)
(1.80029 3.65872 0.928375)
(1.80001 3.6619 0.911864)
(1.8 3.66194 0.911602)
(1.80002 3.6618 0.912393)
(1.80004 3.66162 0.913464)
(1.80008 3.66123 0.915601)
(1.8397 3.65381 0.960338)
(1.80015 3.66044 0.919867)
(1.90221 3.64323 0.904323)
(1.89625 3.64682 0.905849)
(1.91602 3.63437 0.920823)
(1.91192 3.63748 0.920039)
)

// edges

99
(
(36 37)
(17 15)
(6 38)
(17 39)
(18 17)
(40 22)
(41 42)
(23 16)
(18 15)
(14 23)
(23 2)
(2 43)
(1 4)
(3 5)
(5 2)
(44 45)
(45 8)
(46 44)
(14 47)
(47 48)
(48 46)
(49 14)
(50 49)
(15 51)
(52 53)
(54 55)
(55 50)
(51 52)
(53 54)
(56 57)
(58 59)
(57 60)
(43 56)
(16 58)
(60 16)
(37 61)
(62 17)
(63 64)
(65 66)
(67 65)
(68 67)
(66 18)
(69 68)
(70 61)
(36 70)
(59 63)
(71 69)
(64 71)
(42 0)
(72 6)
(72 73)
(0 73)
(0 38)
(74 75)
(74 22)
(39 62)
(75 40)
(4 3)
(27 1)
(20 27)
(28 29)
(29 30)
(30 31)
(31 28)
(26 23)
(32 25)
(33 32)
(23 33)
(5 4)
(34 23)
(5 35)
(35 34)
(1 3)
(24 6)
(8 7)
(10 11)
(11 24)
(13 10)
(12 9)
(7 12)
(9 13)
(19 20)
(21 19)
(22 21)
(6 22)
(8 5)
(1 7)
(1 12)
(20 12)
(19 12)
(19 9)
(21 9)
(21 13)
(22 13)
(22 10)
(22 11)
(6 11)
(25 26)
(23 5)
)

// concaveStart mixedStart nonFeatureStart
0 1 24
// internalStart flatStart openStart multipleStart
11 57 57 72
// normals

144
(
(-0.925765 -0.154391 -0.34514)
(-0.378656 -0.304836 -0.873896)
(-0.8005 0.155827 0.57872)
(-0.491285 -0.847266 0.20194)
(-0.800496 0.155836 0.578724)
(-0.800496 0.155836 0.578724)
(0 -0.0238375 0.999716)
(-0.8005 0.155827 0.57872)
(-0.800499 0.155827 0.578722)
(-0.330749 -0.683261 0.650968)
(-0.800506 0.155783 0.578724)
(-0.800506 0.155783 0.578724)
(-0.438838 -0.758483 0.481793)
(-0.311551 -0.560158 0.767567)
(-0.800499 0.155839 0.578718)
(-0.800499 0.155839 0.578718)
(-0.27031 -0.269247 0.924358)
(-0.800499 0.155823 0.578723)
(-0.800499 0.155823 0.578723)
(-0.219583 -0.129944 0.966901)
(-0.800507 0.155754 0.57873)
(-0.800507 0.155754 0.57873)
(-0.290969 -0.420625 0.859309)
(-0.800504 0.155773 0.57873)
(-0.800504 0.155773 0.57873)
(-0.664981 -0.455076 -0.592204)
(-0.800503 0.155781 0.578729)
(-0.800503 0.155781 0.578729)
(-0.705332 -0.61062 -0.360069)
(-0.800501 0.155805 0.578725)
(-0.800501 0.155805 0.578725)
(-0.653711 -0.735724 -0.177122)
(-0.800504 0.155772 0.57873)
(-0.800504 0.155772 0.57873)
(-0.593231 -0.804949 0.0116203)
(-0.800494 0.155852 0.578722)
(-0.800494 0.155852 0.578722)
(-0.800503 0.155791 0.578726)
(-0.800501 0.15581 0.578724)
(-0.00793937 -0.999968 -0.00039462)
(-0.800502 0.155807 0.578723)
(-0.797449 0.174886 0.577485)
(-0.797449 0.174886 0.577485)
(-0.024063 -0.99885 -0.0414703)
(-0.024063 -0.99885 -0.0414703)
(-0.0111922 -0.040246 0.999127)
(-0.00859574 -0.999962 -0.00128758)
(-0.118852 -0.981291 -0.151469)
(-0.746358 -0.535101 -0.395749)
(0 -0 1)
(0 0 1)
(-0.00920098 -0.0396117 0.999173)
(-0.00877518 -0.0348715 0.999353)
(-0.118734 -0.981311 -0.151428)
(0.0832273 -0.932432 -0.351631)
(0.9443 -0.198029 -0.262834)
(0.101567 -0.980562 -0.167875)
(0.886195 0.458952 0.0634188)
(-0.477056 -0.875279 0.0793991)
(-0.140614 -0.579813 0.802524)
(0.102323 -0.946702 -0.305427)
(0.0812723 -0.525083 -0.847162)
(0.100096 -0.981301 -0.164405)
(-0.552017 -0.831319 0.0646987)
(-0.139441 -0.421759 -0.895922)
(-0.356004 -0.862028 0.36079)
(-0.452272 -0.833668 -0.316936)
(-0.999769 0.0203005 0.00702034)
(-0.0283328 -0.0582006 0.997903)
(-0.999336 0.030205 0.0203941)
(-1 0 0)
(0 -1 0)
(-0.00824014 0.0615503 0.99807)
(-0.861208 -0.342534 -0.375487)
(-0.00818919 0.0644508 0.997887)
(-0.944834 0.0140204 -0.32725)
(0 -0.0238375 0.999716)
(0 -1 0)
(0 -1 0)
(0 0.0524494 0.998624)
(0 -1 0)
(0 0.0524494 0.998624)
(0 0.0524494 0.998624)
(0 -1 0)
(0 0.0524494 0.998624)
(0 -1 0)
(-0.296997 0.166881 0.940183)
(-0.319577 -0.11186 0.940935)
(-1 -0 0)
(0.0988016 -0.993138 -0.0625676)
(-1 6.3687e-05 4.30008e-05)
(0.0811606 -0.938531 0.335519)
(-1 -0 0)
(-0.0840187 -0.643692 0.760658)
(-1 -0 0)
(-0.190066 -0.39059 0.90073)
(-1 -0 0)
(0.0883971 -0.971517 0.219866)
(-1 -5.45582e-05 -2.75101e-05)
(0.0227038 -0.840403 0.541486)
(-1 -0 0)
(-0.441504 -0.813372 -0.378816)
(0.0039601 -0.0857644 0.996308)
(0.0207217 -0.923239 -0.383667)
(-0.999568 0.025289 0.0149592)
(-0.158185 -0.864996 -0.476193)
(-0.008353 -0.0700337 0.99751)
(-0.678778 -0.640783 -0.358689)
(0.00984766 -0.10103 0.994835)
(0.124573 -0.860641 -0.493739)
(-0.277269 -0.874521 -0.397913)
(0.897067 -0.318121 -0.306708)
(0.0907443 -0.969483 -0.227747)
(-0.999167 0.0338715 0.0227624)
(0.0987128 -0.980442 -0.170265)
(-0.998956 0.0378631 0.0255649)
(0.0968761 -0.98031 -0.17207)
(-0.999152 0.0341168 0.0230294)
(0.0936869 -0.980331 -0.173705)
(-0.998983 0.0373644 0.0252327)
(0.0997711 -0.979885 -0.172831)
(-0.998515 0.0451505 0.0304912)
(0.0891914 -0.980183 -0.176879)
(-0.999071 0.0357184 0.0241105)
(-0.18572 -0.932185 -0.310709)
(-0.126719 -0.961492 -0.243874)
(0.0310408 -0.957794 -0.285775)
(-0.999313 0.0309362 0.020428)
(0.0861974 -0.979063 -0.184405)
(-0.999058 0.0359656 0.0242808)
(0.0926622 -0.975645 -0.198821)
(-0.99908 0.0355445 0.0239851)
(-0.425573 -0.87703 0.222948)
(-0.460973 -0.826422 0.32331)
(-0.117894 -0.547289 0.828599)
(-0.500021 -0.862497 0.0779578)
(-0.459412 -0.886466 0.0558462)
(-0.251126 -0.738866 0.62531)
(-0.417909 -0.908066 0.0277016)
(-0.604392 -0.796686 -0.00126926)
(-0.223997 -0.505168 -0.833445)
(-0.685211 -0.650228 0.32816)
(-0.0848157 -0.942243 0.324014)
(-0.399345 -0.781428 -0.479472)
)

// edgeNormals

99
(
2(54 55)
2(56 57)
2(58 59)
2(60 61)
2(62 57)
2(63 64)
2(65 66)
2(67 68)
2(69 57)
2(70 71)
2(72 46)
2(73 74)
2(1 40)
2(75 37)
2(75 46)
2(76 77)
2(6 78)
2(79 80)
2(81 71)
2(82 83)
2(84 85)
2(86 70)
2(87 88)
2(89 90)
2(91 92)
2(93 94)
2(95 96)
2(97 98)
2(99 100)
2(101 102)
2(103 104)
2(105 106)
2(107 108)
2(109 67)
2(109 68)
2(110 111)
2(56 61)
2(112 113)
2(114 115)
2(116 117)
2(118 119)
2(120 121)
2(122 123)
2(111 124)
2(55 125)
2(126 127)
2(128 129)
2(130 131)
2(132 66)
2(133 59)
2(134 135)
2(136 137)
2(137 138)
2(139 140)
2(140 141)
2(142 61)
2(143 64)
1(1)
1(48)
1(25)
1(49)
1(49)
1(50)
1(50)
1(51)
1(45)
1(52)
1(52)
1(38)
1(47)
1(53)
1(53)
3(0 1 2)
3(3 4 5)
3(6 7 8)
3(9 10 11)
3(12 4 5)
3(13 14 15)
3(16 17 18)
3(19 20 21)
3(22 23 24)
3(25 26 27)
3(28 29 30)
3(31 32 33)
3(34 35 36)
3(37 38 39)
4(2 20 40 21)
4(20 41 21 42)
4(41 26 42 27)
4(26 17 27 18)
4(17 29 18 30)
4(29 23 30 24)
4(23 32 24 33)
4(32 14 33 15)
4(14 10 15 11)
4(10 35 11 36)
4(35 4 36 5)
3(43 44 45)
3(46 39 47)
)

// featurePointNormals

24
(
5(132 66 136 137 138)
5(1 40 48 0 41)
5(72 46 73 74 75)
4(75 37 1 0)
2(1 40)
4(75 37 46 53)
6(58 59 133 3 4 34)
3(6 7 19)
4(6 78 7 39)
3(16 17 22)
3(9 10 13)
3(9 10 12)
4(16 17 19 41)
3(13 14 22)
4(70 71 81 86)
5(56 57 69 89 90)
3(67 68 109)
5(56 57 60 61 62)
5(62 57 69 120 121)
3(25 26 28)
3(25 26 41)
3(28 29 31)
7(63 64 140 141 31 32 34)
9(67 68 70 71 72 46 51 52 47)
)

// featurePointEdges

24
(
3(48 51 52)
5(72 12 86 87 58)
3(11 14 10)
3(72 13 57)
3(12 57 68)
6(13 14 85 98 68 70)
5(73 2 49 84 96)
3(74 79 86)
3(74 16 85)
4(78 80 90 91)
3(75 77 94)
4(75 76 95 96)
5(78 79 87 88 89)
4(77 80 92 93)
3(18 21 9)
3(23 1 8)
3(33 34 7)
4(36 1 3 4)
3(41 4 8)
4(81 82 89 90)
3(81 88 59)
4(82 83 91 92)
7(54 83 5 84 93 94 95)
7(7 9 10 98 64 67 69)
)

// regionEdges

42
(
72
73
74
75
76
77
78
79
80
81
82
83
84
85
86
87
88
89
90
91
92
93
94
95
96
97
98
57
58
59
60
61
62
63
64
65
66
67
68
69
70
71
)



// ************************************************************************* //
