/*--------------------------------*- C++ -*----------------------------------*\
| =========                 |                                                 |
| \\      /  F ield         | OpenFOAM: The Open Source CFD Toolbox           |
|  \\    /   O peration     | Version:  2.2.x                                 |
|   \\  /    A nd           | Web:      www.OpenFOAM.org                      |
|    \\/     M anipulation  |                                                 |
\*---------------------------------------------------------------------------*/
FoamFile
{
    version     2.0;
    format      ascii;
    class       extendedFeatureEdgeMesh;
    location    "constant/extendedFeatureEdgeMesh";
    object      waist_left_front.extendedFeatureEdgeMesh;
}
// * * * * * * * * * * * * * * * * * * * * * * * * * * * * * * * * * * * * * //

// points

77
(
(1.90629 3.48798 1.06738)
(1.9089 3.50013 1.06967)
(1.94119 3.54924 0.97293)
(1.93625 3.52631 0.972273)
(1.90978 3.52474 1.07547)
(1.93679 3.52883 0.972345)
(1.90803 3.53716 1.0772)
(1.90544 3.47437 0.943644)
(1.90319 3.4719 0.941193)
(1.91924 3.49086 0.958289)
(1.92335 3.49762 0.962155)
(1.93175 3.51484 0.969135)
(1.93537 3.52407 0.971659)
(1.80103 3.42542 0.954766)
(1.88904 3.46203 0.924268)
(1.89081 3.46326 0.926385)
(1.80093 3.4234 1.06752)
(1.84727 3.46017 0.867002)
(1.88436 3.45986 0.91838)
(1.86045 3.45625 0.886278)
(1.87455 3.45684 0.905638)
(1.86825 3.45658 0.896982)
(1.86331 3.45637 0.890208)
(1.80114 3.44153 0.870472)
(1.80133 3.44705 0.85328)
(1.81042 3.55032 0.796602)
(1.80693 3.55032 0.796602)
(1.8013 3.44711 0.853115)
(1.80132 3.4471 0.853163)
(1.8 3.55032 0.796602)
(1.81392 3.55032 0.796602)
(1.8 3.55032 1.07672)
(1.80097 3.42167 1.01109)
(1.80115 3.4418 0.869321)
(1.91673 3.48673 0.955928)
(1.92798 3.50523 0.966506)
(1.8305 3.43027 0.953993)
(1.85966 3.43582 0.950393)
(1.82512 3.44808 0.868741)
(1.84199 3.45665 0.867432)
(1.83651 3.45345 0.867866)
(1.83087 3.45058 0.868304)
(1.80569 3.45666 0.837698)
(1.80131 3.4471 0.853137)
(1.93178 3.55436 0.0916016)
(1.93161 3.55431 0.0916016)
(1.93165 3.54566 0.0916016)
(1.93182 3.54692 0.0916016)
(1.86 3.45716 0.885416)
(1.87397 3.45774 0.904587)
(1.88886 3.46224 0.92397)
(1.90286 3.53779 1.07716)
(1.81155 3.51885 0.803656)
(1.81005 3.51802 0.802927)
(1.84209 3.54051 1.07625)
(1.90993 3.52268 1.07506)
(1.90991 3.5229 1.07511)
(1.90714 3.49192 1.06813)
(1.91008 3.5124 1.07268)
(1.89696 3.46462 1.06558)
(1.87734 3.44527 1.06779)
(1.85398 3.43168 1.06886)
(1.82799 3.42423 1.06877)
(1.83141 3.4728 0.841616)
(1.81951 3.49314 0.819794)
(1.80044 3.53219 0.795396)
(1.80082 3.5142 0.797632)
(1.81217 3.55032 0.796602)
(1.80409 3.53257 0.796213)
(1.80143 3.46711 0.823571)
(1.80143 3.45566 0.837511)
(1.80112 3.49691 0.803245)
(1.81548 3.50565 0.811085)
(1.81346 3.51967 0.804142)
(1.8017 3.55032 0.796602)
(1.80344 3.55032 0.796602)
(1.80132 3.48106 0.811983)
)

// edges

106
(
(2 3)
(3 11)
(8 15)
(21 22)
(25 52)
(53 26)
(31 54)
(54 4)
(30 2)
(29 31)
(16 31)
(27 16)
(2 5)
(6 2)
(4 6)
(55 56)
(56 4)
(0 57)
(57 1)
(7 8)
(1 58)
(58 55)
(10 9)
(12 11)
(59 0)
(60 59)
(61 60)
(8 14)
(62 61)
(16 62)
(17 63)
(20 19)
(63 64)
(65 66)
(67 25)
(26 68)
(69 70)
(70 27)
(66 71)
(53 25)
(25 26)
(72 73)
(64 72)
(74 29)
(29 65)
(26 75)
(75 74)
(71 76)
(76 69)
(73 30)
(30 67)
(28 16)
(0 1)
(5 3)
(34 7)
(9 34)
(35 10)
(11 35)
(3 12)
(36 13)
(13 37)
(37 36)
(15 14)
(38 17)
(14 18)
(19 17)
(17 39)
(18 20)
(20 21)
(22 19)
(39 40)
(41 38)
(40 41)
(27 42)
(28 24)
(42 43)
(43 28)
(44 45)
(45 46)
(46 47)
(47 44)
(9 7)
(11 10)
(5 12)
(22 48)
(49 21)
(48 17)
(18 49)
(50 18)
(15 50)
(51 6)
(31 51)
(27 28)
(28 23)
(6 31)
(4 2)
(13 32)
(32 16)
(23 13)
(24 23)
(31 4)
(2 31)
(24 33)
(33 23)
(16 13)
(16 23)
)

// concaveStart mixedStart nonFeatureStart
0 2 32
// internalStart flatStart openStart multipleStart
12 53 53 95
// normals

123
(
(-0.947615 0.210934 -0.239861)
(-0.946009 -0.0902439 -0.311325)
(0.220294 0.931332 0.289985)
(-0.160465 0.984872 0.0654049)
(-0.999996 0.00275616 -0.000811194)
(-0.999996 0.00275616 -0.000811194)
(-0.999996 0.00275616 -0.000811194)
(-0.029486 0.999096 -0.0306353)
(-0.0640774 0.980205 0.187332)
(-0.999996 0.00263178 -0.000813424)
(-0.999996 0.00263178 -0.000813424)
(-0.999996 0.00263178 -0.000813424)
(-0.233739 0.926523 0.294823)
(-0.999875 -0.00764154 -0.0138519)
(-0.999875 -0.00764154 -0.0138519)
(-0.999875 -0.00764154 -0.0138519)
(-0.999875 -0.00764154 -0.0138519)
(-0.999875 -0.00764154 -0.0138519)
(0.22703 0.970318 0.08331)
(-0.0214531 -0.140332 0.989872)
(0.118852 0.981291 0.151469)
(0.00793937 0.999968 0.00039462)
(-0.999105 0.0422048 0.00283013)
(-0.630158 0.157488 -0.760328)
(-0.699074 0.711261 -0.0735061)
(-0.829491 0.552176 -0.0839411)
(-0.829466 0.552214 -0.0839377)
(-0.898341 0.401381 -0.178542)
(-0.58303 0.419205 -0.695948)
(-0.17461 0.984636 0.00164851)
(-0.174105 0.979596 0.100399)
(-0.764229 -0.00969529 0.644872)
(-0.353159 0.730796 0.584137)
(-0.73924 0.55381 0.383168)
(-0.462838 0.752003 0.469332)
(-0.676852 0.636306 0.370117)
(-0.421877 -0.84322 0.333166)
(-0.386696 -0.869138 0.308326)
(-0.414281 0.773916 0.478984)
(-0.338525 0.847417 0.409006)
(-0.371892 0.803213 0.465345)
(-0.222453 0.855957 0.466746)
(-0.530611 0.779751 0.332325)
(-0.393864 0.827368 0.400415)
(0 -0 1)
(0 0 1)
(0.800501 -0.155802 -0.578726)
(0.800501 -0.155803 -0.578726)
(0.800504 -0.155789 -0.578726)
(0.800653 -0.155205 -0.578676)
(0.800548 -0.155897 -0.578635)
(0.800666 -0.154848 -0.578753)
(0.800446 -0.156231 -0.578686)
(0.8005 -0.155821 -0.578723)
(0.80051 -0.155782 -0.57872)
(0.118734 0.981311 0.151428)
(-0.404057 -0.909112 -0.101261)
(-0.898344 0.401373 -0.178543)
(0.800505 -0.155792 -0.578723)
(0 0.218728 0.975786)
(-0.505161 0.171534 0.845806)
(-0.636358 0.0886754 0.76628)
(0 0.192151 0.981365)
(-0.035657 -0.200296 0.979086)
(-0.03397 -0.193886 0.980436)
(0.800504 -0.155789 -0.578726)
(0 1 0)
(-0.999973 -0.00732747 0)
(-0.0435615 -0.0725348 0.996414)
(-0.999884 0.0152488 -3.8846e-05)
(-0.967123 -0.0497757 -0.249389)
(-0.0944191 -0.225792 0.969589)
(-0.968411 -0.0183935 -0.248679)
(-0.957189 0.237694 -0.165199)
(-0.842178 0.080594 0.533143)
(-0.957345 0.236977 -0.165325)
(-0.699081 0.711254 -0.0735053)
(0.800508 -0.155784 -0.578721)
(-0.975339 0.136258 -0.173632)
(-0.0449845 -0.233938 0.97121)
(-0.968211 0.0431848 -0.24638)
(-0.829462 0.552221 -0.0839364)
(0.8005 -0.155807 -0.578727)
(0.800501 -0.155802 -0.578726)
(-0.927813 0.372228 -0.0246856)
(0.0343295 -0.090571 0.995298)
(-0.703407 0.710374 -0.0242408)
(0.113202 -0.00110613 0.993571)
(-0.503566 0.863487 -0.028478)
(0.0663378 -0.0359136 0.997151)
(-0.780759 0.516207 0.352059)
(-0.275383 0.961237 -0.0136871)
(0.0136792 -0.0599337 0.998109)
(0.801526 -0.154569 -0.577637)
(-0.644094 0.618301 0.450385)
(-0.507744 0.474353 0.719156)
(0.797264 -0.158348 -0.582491)
(-0.179597 0.117605 0.976685)
(-0.999738 -0.0218029 -0.00693127)
(0 1 -0)
(-0.648934 0.0871563 0.755836)
(0 -0.0218745 0.999761)
(-0.256179 0.746692 0.613859)
(-0.99999 -0.00360831 -0.00268387)
(-0.264641 0.293644 0.918552)
(-0.9998 -0.0190661 -0.0060105)
(0 1 -0)
(-0.436901 0.34806 0.829441)
(0.834584 -0.1434 -0.531888)
(-0.467092 0.398812 0.78916)
(0.779845 -0.168334 -0.602914)
(0 -0.0663749 0.997795)
(-0.999682 -0.0239663 -0.00779632)
(0 1 -0)
(0 -0.0491607 0.998791)
(0 1 -0)
(-0.302712 0.457143 0.836293)
(-0.999864 -0.0156656 -0.00506468)
(-0.288369 0.610781 0.737421)
(-0.999932 -0.0109222 -0.00399448)
(0 0.238838 0.97106)
(0 1 0)
(-0.0199534 -0.181311 0.983223)
)

// edgeNormals

106
(
2(0 23)
2(57 28)
2(31 58)
2(37 49)
2(59 60)
2(61 62)
2(18 63)
2(18 64)
2(65 21)
2(66 67)
2(67 68)
2(69 56)
2(23 65)
2(1 55)
2(1 19)
2(70 71)
2(72 64)
2(73 74)
2(75 74)
2(76 77)
2(78 79)
2(80 71)
2(81 82)
2(28 83)
2(84 85)
2(86 87)
2(88 89)
2(90 31)
2(91 92)
2(7 68)
2(32 93)
2(94 36)
2(95 96)
2(97 98)
2(59 99)
2(100 101)
2(102 103)
2(41 69)
2(104 105)
2(62 60)
2(62 106)
2(107 108)
2(109 110)
2(111 66)
2(111 112)
2(101 113)
2(114 115)
2(116 117)
2(118 119)
2(120 108)
2(120 121)
2(56 22)
2(122 74)
1(23)
1(24)
1(25)
1(26)
1(27)
1(28)
1(3)
1(29)
1(30)
1(31)
1(32)
1(33)
1(34)
1(34)
1(35)
1(36)
1(37)
1(38)
1(39)
1(40)
1(41)
1(42)
1(43)
1(43)
1(44)
1(44)
1(45)
1(45)
1(46)
1(47)
1(48)
1(49)
1(50)
1(51)
1(52)
1(53)
1(54)
1(55)
1(20)
1(56)
1(22)
1(19)
3(0 1 2)
4(3 4 5 6)
4(7 4 5 6)
4(8 9 10 11)
6(12 13 14 15 16 17)
3(2 18 19)
3(2 20 21)
5(13 14 15 16 17)
5(13 14 15 16 17)
6(4 9 5 10 6 11)
4(9 10 22 11)
)

// featurePointNormals

32
(
5(73 74 84 85 122)
5(75 74 78 79 122)
7(0 23 65 21 1 55 2)
4(0 23 57 28)
7(18 64 1 19 72 0 2)
2(23 65)
3(1 55 19)
2(76 77)
4(31 58 76 90)
2(81 82)
2(81 82)
3(57 28 83)
2(28 83)
4(3 29 4 8)
3(90 31 33)
2(31 58)
7(67 68 69 56 7 22 4)
3(32 93 34)
3(33 35 52)
4(94 36 34 37)
3(94 36 35)
3(37 49 36)
2(37 49)
5(22 8 9 12 13)
3(42 12 13)
4(59 60 99 62)
5(61 62 100 101 106)
3(69 56 41)
4(56 22 42 43)
4(66 67 111 112)
5(65 21 120 108 121)
9(18 63 66 67 68 20 19 2 21)
)

// featurePointEdges

32
(
3(17 24 52)
3(18 20 52)
6(0 95 12 13 101 8)
4(0 1 53 58)
5(95 14 16 100 7)
3(12 53 83)
4(13 14 90 94)
3(19 54 81)
3(19 27 2)
3(22 55 81)
3(22 56 82)
4(1 23 57 82)
3(23 58 83)
5(96 98 104 59 60)
3(27 62 64)
3(2 62 89)
7(97 29 10 11 104 105 51)
5(30 63 65 66 86)
4(64 67 87 88)
3(31 65 69)
3(31 67 68)
3(3 68 85)
3(3 69 84)
5(98 99 103 105 93)
3(99 102 74)
4(4 34 39 40)
4(5 35 40 45)
4(37 11 73 92)
5(51 74 76 92 93)
3(43 44 9)
3(49 50 8)
7(100 101 6 9 10 91 94)
)

// regionEdges

53
(
95
96
97
98
99
100
101
102
103
104
105
53
54
55
56
57
58
59
60
61
62
63
64
65
66
67
68
69
70
71
72
73
74
75
76
77
78
79
80
81
82
83
84
85
86
87
88
89
90
91
92
93
94
)



// ************************************************************************* //
