/*--------------------------------*- C++ -*----------------------------------*\
| =========                 |                                                 |
| \\      /  F ield         | OpenFOAM: The Open Source CFD Toolbox           |
|  \\    /   O peration     | Version:  2.2.x                                 |
|   \\  /    A nd           | Web:      www.OpenFOAM.org                      |
|    \\/     M anipulation  |                                                 |
\*---------------------------------------------------------------------------*/
FoamFile
{
    version     2.0;
    format      ascii;
    class       extendedFeatureEdgeMesh;
    location    "constant/extendedFeatureEdgeMesh";
    object      waist_right_back.extendedFeatureEdgeMesh;
}
// * * * * * * * * * * * * * * * * * * * * * * * * * * * * * * * * * * * * * //

// points

70
(
(1.78608 3.55032 0.796602)
(1.6583 3.58016 0.965315)
(1.69508 3.54942 1.07764)
(1.69944 3.56128 1.07684)
(1.65881 3.54924 0.97293)
(1.79307 3.55032 0.796602)
(1.8 3.64987 0.839904)
(1.8 3.57379 0.792436)
(1.79656 3.55032 0.796602)
(1.7983 3.55032 0.796602)
(1.79916 3.55032 0.796602)
(1.79958 3.55032 0.796602)
(1.8 3.65811 0.86295)
(1.69216 3.63939 0.902534)
(1.8 3.66199 0.911338)
(1.65831 3.58015 0.965293)
(1.80093 3.59536 1.07937)
(1.80001 3.6619 0.911864)
(1.80002 3.6618 0.912393)
(1.8 3.66197 0.911404)
(1.8 3.66196 0.91147)
(1.8 3.66194 0.911602)
(1.80004 3.66162 0.913464)
(1.80008 3.66123 0.915601)
(1.80015 3.66044 0.919867)
(1.80029 3.65872 0.928375)
(1.6798 3.63056 0.922008)
(1.69197 3.53716 1.0772)
(1.69022 3.52474 1.07547)
(1.8 3.55032 1.07672)
(1.78958 3.55032 0.796602)
(1.65823 3.57869 0.965797)
(1.65772 3.56657 0.969774)
(1.65765 3.56506 0.970271)
(1.79979 3.55032 0.796602)
(1.79989 3.55032 0.796602)
(1.79995 3.55032 0.796602)
(1.8 3.55032 0.796602)
(1.68396 3.61348 0.968447)
(1.93178 3.55436 0.0916016)
(1.93161 3.55431 0.0916016)
(1.93165 3.54566 0.0916016)
(1.93182 3.54692 0.0916016)
(1.65764 3.56785 0.969541)
(1.71625 3.653 0.908456)
(1.71128 3.6511 0.917268)
(1.69546 3.55047 1.07757)
(1.77552 3.5882 0.801003)
(1.78196 3.56977 0.797065)
(1.75686 3.61875 0.818591)
(1.76699 3.6048 0.808337)
(1.73387 3.63755 0.845332)
(1.74561 3.62976 0.831195)
(1.71017 3.64362 0.876481)
(1.8 3.6369 0.819772)
(1.8 3.61895 0.80458)
(1.8 3.59742 0.795245)
(1.8 3.66353 0.886878)
(1.71962 3.58128 1.07907)
(1.77278 3.5991 1.08039)
(1.80116 3.6232 1.0309)
(1.66225 3.59998 0.954517)
(1.74468 3.59421 1.08028)
(1.80093 3.64465 0.979274)
(1.80055 3.65474 0.945392)
(1.68403 3.63431 0.920739)
(1.688 3.63745 0.919976)
(1.70364 3.64673 0.906045)
(1.66962 3.61727 0.939658)
(1.69447 3.54704 1.07756)
)

// edges

106
(
(44 13)
(26 45)
(0 4)
(28 29)
(29 16)
(29 11)
(46 2)
(3 46)
(47 48)
(49 50)
(48 0)
(51 52)
(53 51)
(50 47)
(52 49)
(54 6)
(55 54)
(7 56)
(5 8)
(8 9)
(9 10)
(10 11)
(12 57)
(56 55)
(13 53)
(57 14)
(58 3)
(16 59)
(60 16)
(1 61)
(62 58)
(59 62)
(63 60)
(64 63)
(65 66)
(26 65)
(26 13)
(44 67)
(61 68)
(25 64)
(68 26)
(66 45)
(69 27)
(2 69)
(27 28)
(28 4)
(0 30)
(1 3)
(31 1)
(32 31)
(33 32)
(4 33)
(11 34)
(34 35)
(35 36)
(36 37)
(37 7)
(30 5)
(3 15)
(15 38)
(38 1)
(39 40)
(40 41)
(41 42)
(42 39)
(4 43)
(43 15)
(15 1)
(0 5)
(2 4)
(5 7)
(8 7)
(9 7)
(10 7)
(11 7)
(6 12)
(17 18)
(14 19)
(19 20)
(20 21)
(21 17)
(22 23)
(18 22)
(23 24)
(24 25)
(27 4)
(4 29)
(29 2)
(27 29)
(7 29)
(29 5)
(8 29)
(29 9)
(29 10)
(12 29)
(29 6)
(23 29)
(29 22)
(29 24)
(25 29)
(29 18)
(29 17)
(29 21)
(29 20)
(19 29)
(29 14)
)

// concaveStart mixedStart nonFeatureStart
0 0 30
// internalStart flatStart openStart multipleStart
6 46 46 69
// normals

156
(
(0.944833 0.0140844 -0.32725)
(0.921506 -0.221833 -0.318773)
(0.00859575 -0.999962 -0.00128758)
(0.292776 0.0826376 0.952603)
(0 0.174767 0.98461)
(0.957646 -0.286971 -0.0236917)
(0 0.174767 0.98461)
(-0.989038 0.147161 0.0121494)
(0 0.174767 0.98461)
(0.997285 -0.0733949 -0.00605933)
(0 0.174767 0.98461)
(0.999337 -0.0362964 -0.00299656)
(0 0.174767 0.98461)
(0.999834 -0.0181573 -0.00149903)
(-0.081161 -0.938531 0.335518)
(1 0 0)
(1 0 0)
(-0.0992298 -0.980647 -0.168772)
(0.999152 -0.0341168 -0.0230294)
(0.999152 -0.0341168 -0.0230294)
(-0.101499 -0.981112 -0.164673)
(0.999251 -0.0320739 -0.0216559)
(0.999251 -0.0320739 -0.0216559)
(0.999251 -0.0320739 -0.0216559)
(0.999251 -0.0320739 -0.0216559)
(0.999251 -0.0320739 -0.0216559)
(0.999251 -0.0320739 -0.0216559)
(0.999251 -0.0320739 -0.0216559)
(0.999251 -0.0320739 -0.0216559)
(0.999251 -0.0320739 -0.0216559)
(0.999251 -0.0320739 -0.0216559)
(0.999251 -0.0320739 -0.0216559)
(0.999251 -0.0320739 -0.0216559)
(-0.10144 -0.981637 -0.161551)
(0.999415 -0.0283482 -0.0191396)
(0.999415 -0.0283482 -0.0191396)
(0.999415 -0.0283482 -0.0191396)
(0.999415 -0.0283482 -0.0191396)
(0.999415 -0.0283482 -0.0191396)
(0.999415 -0.0283482 -0.0191396)
(0.999415 -0.0283482 -0.0191396)
(0.999415 -0.0283482 -0.0191396)
(0.999415 -0.0283482 -0.0191396)
(0.999415 -0.0283482 -0.0191396)
(0.999415 -0.0283482 -0.0191396)
(0.999415 -0.0283482 -0.0191396)
(0.999415 -0.0283482 -0.0191396)
(0.999415 -0.0283482 -0.0191396)
(-0.101552 -0.980479 -0.168371)
(0.998515 -0.0451505 -0.0304912)
(0.998515 -0.0451505 -0.0304912)
(-0.101531 -0.980799 -0.166505)
(0.998956 -0.0378631 -0.0255649)
(0.998956 -0.0378631 -0.0255649)
(-0.0984039 -0.979905 -0.173502)
(0.999071 -0.0357184 -0.0241105)
(0.999071 -0.0357184 -0.0241105)
(-0.0995656 -0.980384 -0.170101)
(0.998983 -0.0373644 -0.0252327)
(0.998983 -0.0373644 -0.0252327)
(-0.0963587 -0.978727 -0.181133)
(0.999058 -0.0359656 -0.0242808)
(0.999058 -0.0359656 -0.0242808)
(-0.094337 -0.976102 -0.195769)
(0.99908 -0.0355445 -0.0239851)
(0.99908 -0.0355445 -0.0239851)
(0.921508 -0.221827 -0.318773)
(0.94601 -0.0902353 -0.311323)
(-0.118847 0.981292 0.151461)
(0.00793937 -0.999968 -0.000394616)
(0.220295 -0.931332 -0.289985)
(0.00911267 -0.0386533 0.999211)
(0.00821509 0.0642859 0.997898)
(0.021453 -0.140332 0.989872)
(0.00911342 -0.0386777 0.99921)
(1 0 0)
(0 -1 0)
(0 -1 0)
(0 -1 0)
(0 -1 0)
(0 -1 0)
(1 5.45582e-05 2.75101e-05)
(1 0 0)
(0.999167 -0.0338715 -0.0227624)
(1 -6.3687e-05 -4.30008e-05)
(0 -0.0104703 0.999945)
(0.861126 -0.342513 -0.375696)
(0.926116 -0.152601 -0.344995)
(0.926086 -0.152729 -0.345019)
(0.926077 -0.152774 -0.345023)
(0 0.174767 0.98461)
(0 0.174767 0.98461)
(0 0.174767 0.98461)
(0 -0.0104703 0.999945)
(0.676935 -0.642907 -0.358369)
(0.745308 -0.536181 -0.396265)
(0.663584 -0.455484 -0.593456)
(0 -0 1)
(0 0 1)
(-0.800498 -0.155828 -0.578723)
(-0.800504 -0.155788 -0.578726)
(-0.79745 -0.174897 -0.577481)
(0.465962 -0.876605 0.120177)
(0.161488 -0.619718 0.768031)
(0.551816 -0.83182 0.0597818)
(0.16373 -0.453074 -0.876308)
(0.0281417 -0.059367 0.997839)
(0.999769 -0.0203005 -0.00702034)
(0.861104 -0.342561 -0.375701)
(0.00821524 0.0644563 0.997887)
(0.219577 -0.129933 0.966904)
(-0.800503 -0.1558 -0.578724)
(0.29097 -0.420607 0.859317)
(-0.800498 -0.155837 -0.578721)
(0.0683727 -0.00929921 0.997617)
(-0.800499 -0.155827 -0.578723)
(0.330749 -0.683261 0.650968)
(-0.800506 -0.155779 -0.578726)
(0.438837 -0.758483 0.481794)
(-0.800495 -0.155818 -0.57873)
(0.270294 -0.269272 0.924356)
(-0.800506 -0.155774 -0.578727)
(0.311553 -0.560173 0.767555)
(-0.800508 -0.15576 -0.578728)
(-0.022704 -0.840403 0.541486)
(0.0840187 -0.643692 0.760658)
(1 0 0)
(0.274929 -0.113501 0.954742)
(-0.088405 -0.971518 0.219859)
(0.190068 -0.39059 0.90073)
(1 0 0)
(0.491283 -0.847267 0.201941)
(-0.0988014 -0.993139 -0.06256)
(-0.00980127 -0.100841 0.994854)
(-0.132279 -0.859261 -0.494138)
(-0.800506 -0.155774 -0.578727)
(0.438837 -0.814905 -0.378619)
(-0.00397543 -0.0858237 0.996302)
(0.153369 -0.870305 -0.468025)
(0.00835 -0.0703829 0.997485)
(-0.0296395 -0.923111 -0.383389)
(0.999568 -0.025289 -0.0149592)
(-0.0968222 -0.954145 -0.283254)
(0.999313 -0.0309362 -0.020428)
(0.418648 -0.676629 -0.605728)
(0.621543 -0.783287 0.012104)
(0.676605 -0.63817 0.367348)
(0.568378 -0.822677 -0.01219)
(-0.800489 -0.155878 -0.578723)
(0.42428 -0.897885 0.117427)
(0.697038 -0.614784 -0.369024)
(-0.8005 -0.155815 -0.578724)
(-0.0953291 -0.969678 -0.225027)
(0.654404 -0.735284 -0.17639)
(-0.800507 -0.155768 -0.578726)
(0.39224 -0.769083 -0.504637)
)

// edgeNormals

106
(
2(102 103)
2(104 105)
2(99 69)
2(73 70)
2(106 107)
2(13 80)
2(108 72)
2(86 109)
2(110 111)
2(112 113)
2(114 115)
2(116 117)
2(118 119)
2(120 121)
2(122 123)
2(124 82)
2(125 126)
2(127 75)
2(4 76)
2(6 78)
2(8 79)
2(10 80)
2(128 81)
2(129 130)
2(131 119)
2(132 84)
2(94 133)
2(134 106)
2(134 107)
2(96 135)
2(136 137)
2(138 139)
2(140 141)
2(142 143)
2(144 145)
2(144 146)
2(147 148)
2(103 149)
2(150 151)
2(152 83)
2(153 154)
2(105 155)
2(66 74)
2(1 71)
2(67 73)
2(67 70)
1(85)
1(86)
1(87)
1(88)
1(89)
1(0)
1(12)
1(90)
1(91)
1(92)
1(92)
1(93)
1(94)
1(95)
1(96)
1(97)
1(97)
1(98)
1(98)
1(99)
1(100)
1(101)
1(77)
3(0 1 2)
3(3 4 5)
3(4 6 7)
3(6 8 9)
3(8 10 11)
3(10 12 13)
3(14 15 16)
3(17 18 19)

13
(
20
21
22
23
24
25
26
27
28
29
30
31
32
)


15
(
33
34
35
36
37
38
39
40
41
42
43
44
45
46
47
)

3(48 49 50)
3(51 52 53)
3(54 55 56)
3(57 58 59)
3(60 61 62)
3(63 64 65)
3(66 67 68)
4(2 68 69 70)
3(2 71 72)
3(68 73 74)
6(5 7 9 11 75 13)
3(5 76 77)
3(7 76 78)
3(9 79 78)
3(11 80 79)
3(15 81 16)
3(15 16 82)
4(55 61 62 56)
4(55 58 56 59)
4(64 61 62 65)
3(64 83 65)
4(58 18 59 19)
4(18 52 19 53)
4(52 49 50 53)

16
(
49
34
35
36
50
37
38
39
40
41
42
43
44
45
46
47
)


26
(
21
22
23
24
25
26
27
28
29
30
31
32
34
35
36
37
38
39
40
41
42
43
44
45
46
47
)


13
(
21
22
23
24
25
26
27
28
29
30
31
32
84
)

)

// featurePointNormals

30
(
5(99 69 114 85 77)
5(96 135 86 87 101)
6(108 72 1 71 0 2)
4(86 109 94 133)
7(99 69 67 70 0 1 68)
5(4 76 93 3 5)
3(124 82 14)
9(127 75 92 3 5 7 9 11 13)
3(4 76 7)
3(6 78 9)
3(8 79 11)
3(13 80 10)
3(128 81 14)
5(102 103 131 119 147)
4(132 84 20 21)
4(94 95 100 101)
3(106 107 134)
4(17 18 51 52)
3(17 18 58)
4(20 21 33 34)
4(33 34 48 49)
4(48 49 51 52)
4(54 55 57 58)
3(54 55 60)
3(60 61 63)
4(152 83 63 64)
7(104 105 144 146 147 148 153)
5(66 74 67 73 68)
3(73 70 67)

21
(
73
70
106
107
13
80
2
68
71
72
5
7
9
11
75
55
58
83
49
34
21
)

)

// featurePointEdges

30
(
4(10 2 46 68)
5(29 47 48 60 67)
4(6 69 43 87)
4(7 26 47 58)
7(69 85 45 2 86 51 65)
5(70 18 90 57 68)
3(15 75 95)
8(17 70 71 72 73 74 89 56)
4(71 18 19 91)
4(72 19 20 92)
4(73 20 21 93)
4(74 21 5 52)
3(22 75 94)
3(24 0 36)
3(25 77 105)
4(58 59 66 67)
3(27 28 4)
3(76 80 101)
3(76 82 100)
3(77 78 104)
3(78 79 103)
3(79 80 102)
3(81 82 97)
3(81 83 96)
3(83 84 98)
3(84 39 99)
4(35 36 40 1)
4(85 42 44 88)
3(44 45 3)

23
(
86
87
88
3
4
89
90
91
92
93
94
95
96
97
98
99
100
101
102
103
104
105
5
)

)

// regionEdges

60
(
69
70
71
72
73
74
75
76
77
78
79
80
81
82
83
84
85
86
87
88
89
90
91
92
93
94
95
96
97
98
99
100
101
102
103
104
105
46
47
48
49
50
51
52
53
54
55
56
57
58
59
60
61
62
63
64
65
66
67
68
)



// ************************************************************************* //
