/*--------------------------------*- C++ -*----------------------------------*\
| =========                 |                                                 |
| \\      /  F ield         | OpenFOAM: The Open Source CFD Toolbox           |
|  \\    /   O peration     | Version:  2.2.x                                 |
|   \\  /    A nd           | Web:      www.OpenFOAM.org                      |
|    \\/     M anipulation  |                                                 |
\*---------------------------------------------------------------------------*/
FoamFile
{
    version     2.0;
    format      ascii;
    class       scalarListList;
    location    "constant";
    object      F;
}
// * * * * * * * * * * * * * * * * * * * * * * * * * * * * * * * * * * * * * //


1014
(

406
(
0.040506
0.0272634
0.0107853
0.00391173
0.00158442
0.000851393
0.0358016
0.0245256
0.010054
0.00374752
0.00154183
0.0256392
0.0183752
0.00826012
0.00331339
0.00142403
0.000759981
0.0161465
0.0122403
0.0061878
0.00274277
0.00125603
0.00966568
0.00773008
0.00438845
0.00216463
0.00599912
0.00434131
0.00274138
0.00268548
0.194942
0.0291601
0.000811339
0.00038025
0.000183391
0.0004866
0.00222463
0.00156242
0.00178176
0.00103229
0.00313406
0.0049642
0.308504
0.0414548
0.00267948
0.000466711
0.000260245
0.000633554
0.0224233
0.00975396
0.00358209
0.0462944
0.00452074
0.00117236
9.56539e-05
0.00533289
0.0384185
4.48857e-06
4.87842e-07
6.77868e-06
4.23008e-06
3.65215e-07
5.84436e-07
1.80989e-05
1.32716e-06
3.35445e-05
5.91297e-07
8.9166e-06
3.57613e-07
7.77385e-06
1.69104e-06
5.56728e-06
7.1242e-06
7.44207e-06
1.72955e-05
1.8274e-06
1.95862e-06
4.54759e-06
1.0941e-05
1.52276e-06
2.27315e-06
5.7009e-06
2.49093e-06
1.16496e-06
1.35598e-06
1.05569e-05
2.85949e-06
1.78965e-06
8.50414e-07
4.16044e-06
2.99e-07
1.70528e-05
1.91977e-06
9.38985e-06
3.99451e-05
1.51802e-05
2.01707e-05
2.76935e-06
2.89258e-06
3.56571e-05
7.99479e-06
1.23308e-05
4.36902e-06
1.69933e-06
7.85518e-06
2.5973e-06
4.81353e-05
2.13492e-05
1.72856e-06
1.04674e-06
7.3116e-06
4.07152e-05
2.41248e-06
6.24029e-06
9.11397e-06
1.23399e-05
1.64958e-06
2.91158e-06
2.29322e-06
6.03746e-06
3.09673e-06
3.18549e-06
2.00143e-06
1.1278e-05
5.7629e-06
5.42509e-06
2.64628e-06
3.08623e-06
2.62293e-05
3.14012e-06
7.25428e-06
5.7178e-06
4.40889e-06
1.78861e-06
1.97988e-05
5.97068e-05
1.76987e-05
6.73465e-07
1.08389e-05
1.85824e-06
1.34886e-06
1.69092e-06
2.10342e-06
9.79361e-05
2.2744e-06
1.59848e-05
4.20582e-05
3.17764e-05
1.85816e-05
1.83193e-05
1.34817e-06
5.39687e-06
6.69957e-07
1.67929e-06
3.28909e-06
8.52349e-06
6.07428e-06
5.88621e-07
1.04004e-06
9.83685e-06
2.34402e-05
5.32085e-06
2.90413e-05
9.26994e-06
3.97021e-05
4.61111e-05
3.11307e-05
1.36263e-06
9.49991e-06
1.20265e-05
1.29045e-05
3.0301e-06
1.75141e-06
4.68121e-06
2.02332e-05
1.46414e-06
5.97545e-05
4.79326e-05
3.44696e-05
5.23108e-05
1.38042e-06
2.82071e-05
3.12688e-05
2.98687e-06
4.4663e-05
1.28615e-06
3.51837e-05
1.43586e-05
2.68212e-06
6.69901e-06
2.42868e-06
1.42548e-06
8.85166e-07
9.5979e-06
2.46503e-05
1.79387e-05
1.9525e-05
5.90706e-06
1.95158e-06
1.071e-05
4.80256e-06
1.21351e-08
1.12674e-06
2.33383e-06
2.10054e-05
3.36408e-05
5.74896e-06
1.58878e-06
9.31979e-06
1.54961e-05
1.95228e-05
1.74326e-05
1.19065e-07
1.75179e-07
6.79731e-06
3.78185e-06
3.32171e-06
4.37325e-06
3.1183e-06
2.42458e-06
1.46625e-05
4.42572e-06
8.51517e-06
3.8402e-07
4.05994e-06
4.16937e-06
6.66628e-06
3.50861e-06
4.3669e-06
8.32174e-06
7.23702e-06
4.19834e-06
1.48415e-06
1.60733e-06
4.76172e-06
1.97893e-06
1.06688e-05
4.34545e-06
1.49024e-06
4.25785e-06
2.49833e-06
1.53754e-07
1.01573e-06
4.32251e-06
9.86981e-06
8.90711e-06
1.69432e-06
6.21437e-06
3.43527e-06
1.52069e-06
1.18398e-05
4.66396e-06
2.40295e-05
5.20938e-07
6.7813e-06
5.12733e-06
1.39454e-06
1.90852e-06
2.19292e-06
5.86726e-06
4.78893e-06
3.30804e-06
5.73975e-06
4.38619e-06
3.30768e-06
7.692e-06
8.96371e-07
9.49478e-07
3.42509e-06
6.56689e-06
1.65883e-06
2.91531e-06
2.33239e-05
3.03744e-06
2.00517e-05
2.95864e-06
9.45985e-06
5.84773e-06
7.79723e-06
1.25943e-06
1.06078e-05
1.35446e-06
3.88547e-06
2.20476e-06
1.59995e-05
3.16325e-06
3.23213e-05
7.18117e-06
3.72168e-06
3.15158e-06
3.3422e-06
1.37809e-07
3.48687e-07
3.68169e-08
3.42617e-08
1.67668e-08
3.60574e-07
2.41174e-08
5.44167e-08
7.48761e-08
1.02957e-07
1.13664e-07
6.6226e-08
5.0165e-07
3.76433e-08
7.39111e-08
1.24701e-07
4.57085e-09
9.81269e-09
2.27587e-07
2.05618e-08
2.12057e-07
8.34853e-08
4.76095e-08
1.43282e-07
1.26632e-07
5.13595e-08
2.44392e-07
6.02214e-08
4.20979e-07
5.15187e-08
1.40315e-07
2.47391e-08
3.53292e-07
1.79927e-07
3.43321e-08
6.60185e-08
9.654e-08
2.18591e-08
3.44568e-08
1.06057e-08
1.78841e-08
1.04476e-07
8.79203e-08
3.10647e-07
2.34386e-07
2.3477e-06
2.06267e-06
5.58124e-06
2.9805e-06
1.73544e-06
7.08685e-06
1.31588e-05
1.7174e-06
4.55581e-07
4.4198e-07
4.16541e-07
5.60059e-07
1.25653e-06
6.6367e-07
2.23379e-06
4.6677e-06
6.12571e-07
3.29719e-07
2.62656e-06
1.27574e-07
1.02687e-05
5.38383e-06
4.09224e-07
3.60007e-07
2.468e-06
1.82296e-07
8.37698e-07
4.46515e-07
3.69459e-07
1.19504e-06
1.84778e-06
8.53337e-07
5.18685e-07
3.88999e-06
7.16411e-06
1.95627e-07
4.52634e-06
5.5312e-06
2.43805e-06
4.3465e-06
3.62521e-06
6.40829e-06
5.23629e-07
1.65688e-06
2.75774e-06
2.72744e-06
1.11665e-05
1.66626e-05
4.5992e-06
1.05745e-05
5.12549e-06
1.13073e-05
2.49325e-06
2.82176e-06
3.88112e-06
3.8767e-06
4.25405e-06
5.08341e-06
5.54194e-06
3.04089e-06
7.95972e-07
5.28175e-06
1.02858e-06
1.55464e-06
1.7544e-05
3.18931e-05
7.58153e-07
1.56093e-06
1.80191e-06
6.65357e-06
)


349
(
0.0272636
0.0405057
0.0272636
0.0107852
0.00391171
0.00188036
0.0245258
0.0358014
0.0245258
0.0100539
0.0037475
0.0183754
0.025639
0.0183754
0.00826008
0.00331337
0.00159299
0.0122404
0.0161464
0.0122404
0.00618778
0.00274276
0.00773014
0.00966561
0.00773014
0.00438844
0.00216462
0.0020435
0.00559656
0.00693292
0.00505026
0.00438031
0.0273302
0.0357209
0.00156586
0.000811336
0.000380246
0.00100764
0.00415671
0.00313177
0.00345944
0.00194663
0.00553854
0.00723789
0.0414551
0.308503
0.0414551
0.00247521
0.000650855
0.00200206
0.0131267
0.0236079
0.00864317
0.031946
0.00780423
0.00232028
0.000287443
0.00923815
0.0396897
1.54394e-05
2.67276e-06
2.59569e-05
1.35271e-05
4.597e-06
5.6232e-07
2.89569e-05
2.14233e-06
6.34525e-05
8.50725e-07
1.79474e-05
2.04651e-06
1.52678e-05
4.96822e-06
3.34869e-06
9.70634e-06
1.99514e-05
1.52993e-06
5.00053e-06
3.66853e-06
2.29518e-05
3.38437e-06
1.89112e-06
9.99162e-06
6.13247e-05
3.1392e-05
5.34662e-05
3.78614e-05
2.75959e-05
8.805e-06
6.83938e-06
0.000112638
1.76151e-05
1.1966e-05
1.33359e-05
3.91499e-06
1.84237e-05
5.18121e-06
0.00014897
3.72023e-05
6.15524e-06
7.12338e-06
9.06428e-05
4.35452e-06
1.10187e-05
1.21785e-05
1.47252e-05
4.83058e-06
9.2751e-06
5.65906e-06
1.15083e-05
1.18858e-05
6.41685e-06
6.74216e-06
2.20312e-05
1.39016e-05
1.57478e-05
4.67627e-06
6.17826e-06
7.0653e-05
1.04359e-05
1.99689e-05
1.53308e-05
1.15887e-05
4.72193e-06
4.11272e-05
0.000117942
2.43363e-05
1.50866e-06
3.81564e-06
4.86151e-06
7.06727e-06
6.70748e-06
0.000237127
6.08143e-06
4.40038e-05
0.000115909
9.69395e-05
5.06716e-05
6.12472e-05
4.22018e-06
2.06775e-05
1.996e-06
4.67864e-06
3.02151e-05
3.64926e-05
3.73323e-05
4.14881e-05
7.91269e-05
8.35165e-05
9.45647e-05
0.000123639
6.2591e-05
1.30189e-06
3.75953e-05
4.85091e-05
7.45902e-06
2.59615e-06
2.83366e-05
3.58479e-05
3.3677e-06
0.000103969
7.71475e-06
0.000234132
0.000163765
0.000112489
6.60575e-06
5.62818e-05
9.18689e-05
0.00010668
6.93703e-06
0.000108206
6.00645e-06
2.95389e-05
1.61244e-05
1.96684e-05
5.45444e-06
3.53889e-06
7.21777e-05
5.71231e-05
4.72097e-05
2.19249e-05
6.8032e-06
2.05142e-05
1.91882e-05
8.21028e-06
2.60964e-05
5.76271e-05
0.000120893
7.39613e-06
9.47393e-06
4.83735e-05
2.89611e-05
8.29078e-05
5.43833e-05
5.31675e-07
7.15705e-07
5.27776e-06
8.5355e-06
1.80651e-05
6.47823e-06
3.19342e-06
2.53015e-05
1.2567e-05
5.45794e-06
1.81127e-05
1.40048e-05
2.35381e-06
9.9702e-06
2.35786e-05
1.90433e-05
3.23216e-06
1.42361e-05
2.6015e-06
2.97524e-05
1.10224e-05
6.52964e-05
1.2068e-05
1.13507e-06
3.12799e-06
5.56467e-06
1.33585e-05
1.19753e-05
8.29041e-06
1.16447e-05
9.76966e-06
4.62032e-06
1.64899e-05
2.29916e-06
8.74147e-06
5.95469e-05
2.56612e-06
5.42383e-06
2.46543e-05
1.92211e-05
8.7106e-06
3.73135e-06
1.27936e-05
1.59472e-05
1.0061e-05
1.19832e-05
5.49675e-05
6.02831e-06
9.29207e-05
1.27139e-05
9.68942e-06
4.18118e-06
6.29155e-07
1.11613e-06
2.72792e-07
4.84818e-08
1.19095e-06
1.7471e-07
8.62624e-08
5.07164e-07
4.86915e-07
3.37917e-07
2.38771e-06
1.69839e-07
2.54262e-07
4.71406e-07
8.78774e-07
8.51612e-08
1.32813e-06
3.61655e-07
2.1738e-07
6.09853e-07
4.00721e-07
1.56024e-06
1.99658e-07
3.1956e-06
2.57052e-07
1.65033e-07
5.27843e-08
1.41297e-06
6.12902e-07
1.38909e-07
3.20577e-07
4.93381e-07
2.57516e-08
1.11237e-08
1.65282e-07
1.68524e-07
6.22755e-08
6.04162e-08
3.70128e-07
1.24761e-06
7.68682e-07
7.51682e-06
6.72358e-06
1.6224e-05
1.02896e-05
4.29724e-06
1.46515e-05
4.03349e-05
4.3764e-06
1.49669e-06
1.45892e-06
3.37048e-06
3.92983e-07
1.63054e-06
3.03565e-06
1.12438e-05
3.36307e-06
2.42734e-06
5.4294e-06
8.23067e-07
3.5873e-05
4.00225e-05
2.25717e-06
4.01504e-07
1.37996e-05
9.50081e-07
5.12138e-06
5.73649e-06
9.6342e-07
1.3881e-06
9.46694e-06
1.14803e-05
1.11854e-05
1.53063e-05
5.36648e-06
1.35915e-05
9.28987e-06
5.41544e-06
3.85616e-06
8.95648e-06
2.81258e-05
3.78923e-05
8.97367e-06
2.93845e-05
1.3629e-05
2.40208e-05
6.75201e-06
7.52198e-06
3.66445e-06
6.98376e-06
7.17328e-06
5.89108e-06
4.98937e-06
1.86647e-06
9.43721e-06
3.21177e-06
4.80872e-06
7.37293e-05
9.10228e-05
4.96076e-06
7.6581e-06
1.5396e-06
2.23887e-05
)


255
(
0.0107853
0.0272634
0.040506
0.0272635
0.0107852
0.00472611
0.010054
0.0245256
0.0358016
0.0245257
0.0100539
0.00826012
0.0183752
0.0256392
0.0183753
0.00826006
0.00366492
0.0061878
0.0122403
0.0161465
0.0122404
0.00618776
0.00438845
0.00773008
0.00966568
0.00773013
0.00438843
0.00393652
0.00383356
0.00869593
0.0106475
0.00741659
0.00755116
0.0200261
0.00217982
0.00156585
0.00081133
0.00204405
0.00567629
0.0054393
0.0062338
0.00367394
0.00732207
0.0086657
0.00267948
0.0414548
0.308504
0.0401786
0.00206536
0.00849708
0.00393525
0.0236079
0.0149166
0.0122793
0.0146534
0.0046987
0.00126866
0.00702834
0.0292707
3.69451e-05
9.34567e-06
6.94315e-05
1.08113e-06
1.97162e-05
1.32708e-05
8.00698e-06
8.36355e-06
1.16091e-05
4.75488e-06
5.81467e-06
1.95337e-05
1.2063e-05
0.000151256
6.73582e-05
4.41869e-05
1.74282e-05
7.02069e-06
0.000226987
1.37934e-05
2.49741e-05
3.93653e-06
2.06562e-05
0.000300578
1.4029e-05
7.36998e-05
8.34195e-06
1.86469e-05
6.83324e-06
6.89875e-06
3.00689e-05
3.94576e-06
1.4902e-05
1.33782e-05
1.74369e-05
2.67149e-05
4.00259e-06
0.000101982
2.23522e-05
3.10893e-05
2.44632e-05
1.77065e-05
2.86091e-05
8.01873e-05
1.10698e-06
2.58737e-06
6.57239e-05
0.000230702
6.10344e-05
0.000164615
0.000177363
6.77477e-05
0.000134644
8.04124e-06
5.56518e-05
0.000177584
0.000135826
9.73732e-05
0.000171769
7.31317e-05
0.000129377
7.77618e-06
0.00026438
0.000201611
9.24681e-05
3.91018e-05
0.00010127
0.000346706
0.000227357
0.000144312
2.80435e-05
4.27836e-06
1.5016e-05
1.03513e-05
0.000116042
0.000113999
3.85582e-05
5.78005e-05
1.61091e-05
5.58568e-05
0.000183769
4.72524e-05
0.000172358
5.59637e-05
0.00027624
4.66756e-05
0.000204821
0.000268623
1.88639e-06
2.15349e-06
1.46746e-05
8.49459e-05
3.17407e-05
5.32839e-06
5.22676e-05
9.94661e-05
9.89584e-06
8.51348e-06
2.83167e-06
1.0168e-05
2.78991e-05
1.39025e-05
2.03994e-06
1.43786e-05
3.91778e-05
1.11168e-05
0.000102959
7.87856e-06
1.27068e-05
9.4994e-06
7.68707e-06
8.79003e-06
1.1883e-05
1.25378e-05
7.03595e-05
4.95125e-05
3.47855e-05
1.05428e-05
7.37852e-06
6.87528e-05
5.85863e-05
8.3749e-05
0.000129415
0.000142335
3.03356e-05
1.90135e-05
2.18429e-06
6.08249e-08
2.40085e-06
3.17727e-07
5.13307e-07
1.24959e-06
2.45264e-06
2.28362e-07
2.31437e-06
7.90886e-06
1.93689e-05
9.70807e-07
3.76598e-06
1.0564e-06
3.45263e-07
1.20225e-06
2.06486e-06
1.96294e-07
2.60286e-06
5.94519e-07
2.68149e-07
8.97097e-08
1.01033e-06
3.56421e-06
2.06395e-06
9.66056e-06
1.37276e-05
1.82042e-05
1.2034e-05
3.78657e-06
7.98147e-05
0.000227909
9.15699e-06
5.68522e-05
3.67471e-06
1.10743e-05
1.58686e-06
1.57481e-05
3.98362e-06
9.94679e-06
3.83042e-06
6.96055e-06
1.67081e-05
2.77212e-05
6.23502e-06
2.79697e-05
1.46989e-05
1.14591e-05
1.90448e-05
4.27012e-05
4.83174e-05
7.22796e-06
5.20775e-05
2.2912e-05
2.52471e-05
9.24753e-06
6.12945e-06
2.59002e-06
5.65789e-06
6.5307e-06
9.79195e-06
0.000199569
0.00017115
1.70632e-05
1.98255e-06
2.06032e-05
5.15907e-06
5.03771e-05
3.67095e-06
8.23003e-06
)


267
(
0.00391173
0.0107851
0.0272635
0.040506
0.0272635
0.0130225
0.00374752
0.0100539
0.0245257
0.0358016
0.0245257
0.00331339
0.00826002
0.0183753
0.0256392
0.0183753
0.00876226
0.00274277
0.00618773
0.0122404
0.0161465
0.0122404
0.00216463
0.0043884
0.00773013
0.00966568
0.00773013
0.00700185
0.00216616
0.00817427
0.0271657
0.0121638
0.00299103
0.0105875
0.00186531
0.00217982
0.00156585
0.00344898
0.00490264
0.00664329
0.00886906
0.00631201
0.0064236
0.00781686
0.000517831
0.00267943
0.0414548
0.314869
0.00973484
0.0391148
0.00117509
0.00975396
0.0146753
0.00541106
0.0297011
0.00877249
0.0118612
0.00446064
0.0167067
0.000133973
4.32421e-05
3.46883e-05
6.3698e-05
3.70397e-05
7.32389e-05
2.51604e-06
4.92327e-05
0.000416967
2.53483e-05
0.000231343
4.42018e-05
8.78822e-06
4.37827e-05
1.42397e-05
1.68782e-06
1.34058e-05
1.16435e-05
3.23412e-06
9.96305e-06
1.27639e-05
5.13452e-05
8.51687e-05
3.27466e-06
7.27023e-06
1.26985e-05
5.18566e-05
7.0458e-05
3.57386e-05
0.000161588
8.63187e-06
4.54184e-05
1.42217e-05
7.11429e-05
7.12887e-05
1.04511e-05
8.36796e-06
1.27084e-05
3.5192e-05
2.78941e-05
0.000159099
7.83488e-05
3.06582e-05
5.89241e-05
0.000131776
1.57272e-05
0.000268527
7.3318e-05
0.000121596
0.000272969
0.000165122
2.6712e-05
0.000313943
0.000222088
4.63595e-06
5.31022e-05
0.000299633
0.000116649
2.34828e-05
0.00032393
8.42099e-05
1.59809e-05
2.00552e-05
5.36824e-05
6.52567e-05
0.000162869
8.5237e-05
1.69405e-05
6.1333e-05
8.0602e-06
5.91922e-06
5.68991e-07
3.28099e-05
3.04303e-05
6.60686e-06
3.09342e-05
0.000257252
3.50465e-05
0.000144069
0.000100515
2.04296e-06
5.40432e-05
3.03658e-05
0.000125207
0.000114584
8.50299e-07
7.27156e-07
6.82657e-06
6.92693e-06
9.51013e-05
3.69561e-05
2.38448e-05
1.91445e-05
5.36684e-06
7.36017e-06
6.50079e-06
1.29582e-06
1.50371e-05
0.000124726
2.83881e-06
3.98379e-05
3.17731e-05
1.12717e-05
1.57631e-05
9.12436e-06
8.94792e-06
9.56969e-05
2.379e-05
1.96546e-05
6.70285e-06
1.02303e-05
7.69337e-05
7.82412e-05
2.65054e-05
2.36113e-05
6.54078e-06
2.40289e-06
6.91321e-06
1.0627e-05
1.75084e-05
6.85841e-06
2.56113e-05
6.46208e-06
2.71649e-05
3.10898e-06
0.000153047
1.23578e-05
7.61494e-05
5.97682e-05
2.57662e-05
6.769e-05
3.37615e-05
9.97583e-05
2.22618e-05
1.52776e-05
1.12521e-05
9.0084e-05
0.000120547
9.33636e-05
5.24719e-05
1.43215e-05
5.71968e-06
1.3244e-06
2.95729e-07
4.86765e-07
4.10255e-06
6.15386e-07
5.32252e-07
8.93949e-08
8.71553e-07
5.80993e-06
3.54775e-07
2.63195e-07
5.85831e-07
3.72624e-08
1.25338e-06
4.79924e-06
6.33704e-07
1.13765e-06
3.91738e-07
1.62762e-06
5.09585e-06
1.45711e-05
4.48502e-07
9.43068e-07
6.95296e-08
5.6415e-07
1.1312e-06
2.28285e-07
1.40199e-07
2.91122e-06
2.45512e-07
1.35796e-07
2.81629e-07
1.05345e-06
1.61619e-07
7.5296e-08
4.78511e-06
9.89128e-06
2.03857e-05
8.62831e-06
2.58207e-06
2.05607e-05
0.000191819
5.62772e-06
3.63184e-05
2.17822e-06
2.65109e-05
3.55018e-06
7.41358e-06
6.97556e-06
1.06644e-05
3.7527e-06
6.57135e-06
1.41033e-05
1.26096e-05
0.000180375
0.000111653
1.82351e-05
1.81137e-05
3.57411e-06
1.90426e-05
5.48003e-06
8.51792e-06
1.16142e-05
1.0627e-05
1.68271e-06
1.56213e-05
)


338
(
0.00158442
0.00391168
0.0107852
0.0272635
0.040506
0.0307831
0.00154183
0.00374747
0.0100539
0.0245257
0.0358016
0.00142403
0.00331335
0.00826006
0.0183753
0.0256392
0.0176344
0.00125603
0.00274273
0.00618776
0.0122404
0.0161465
0.00106711
0.00438843
0.00773013
0.00966568
0.0100236
0.00582158
0.0916998
0.0141679
0.00146041
0.00594808
0.00106192
0.00186531
0.0021798
0.00406914
0.00287617
0.00515345
0.0085815
0.00857074
0.00396628
0.00530233
0.000161656
0.000517824
0.00267943
0.0968849
0.140271
0.0512381
0.000424121
0.00235598
0.00540682
0.00276603
0.055438
0.0125764
0.131962
0.00278524
8.94553e-05
1.09522e-05
1.1391e-05
5.01528e-05
4.43547e-05
4.67378e-05
4.47824e-05
5.34639e-05
2.59102e-05
3.37651e-06
6.02214e-07
1.59879e-05
5.3597e-06
2.99816e-05
0.000223159
1.01305e-05
9.35296e-05
1.81352e-05
5.69017e-06
0.000111603
4.33038e-05
3.99495e-06
4.63412e-05
5.73577e-05
2.86739e-06
1.85244e-05
2.17751e-06
1.19505e-05
8.28215e-06
3.04717e-06
7.82163e-06
6.10511e-07
2.25894e-05
1.43554e-05
2.69418e-05
2.03426e-06
1.65057e-06
7.50461e-07
4.21258e-05
8.40573e-05
8.90054e-06
1.78223e-06
3.74526e-06
4.38607e-06
6.27985e-06
1.60477e-06
1.46455e-06
3.40921e-06
3.59215e-05
7.67042e-05
1.79359e-05
7.46343e-05
3.11827e-06
3.27328e-05
6.11169e-06
2.92813e-05
3.89571e-05
5.24476e-06
2.71124e-06
1.21414e-06
6.32766e-06
9.49825e-06
7.83479e-06
1.01131e-05
5.03804e-05
1.79946e-05
3.18096e-05
2.36779e-05
1.16861e-05
3.73254e-05
4.76937e-06
0.000107689
5.0036e-05
2.67962e-06
2.07194e-05
9.11185e-06
1.3288e-05
3.45569e-05
7.28515e-06
7.55926e-05
8.02124e-05
2.66202e-05
0.000109593
8.70836e-05
4.82554e-06
1.8727e-05
6.63707e-05
3.34051e-06
3.63203e-05
3.30712e-07
6.26254e-06
4.32501e-05
3.28537e-06
4.39116e-06
8.81242e-06
1.83903e-05
1.43192e-05
5.27624e-05
3.34895e-05
2.39064e-05
1.79002e-05
2.65855e-05
1.28082e-06
1.04366e-06
4.75383e-07
4.69272e-06
5.29736e-07
5.20782e-06
3.86165e-05
7.32936e-05
1.09605e-05
6.76978e-06
3.17149e-05
1.72536e-05
3.76819e-05
7.90175e-07
5.30266e-06
2.09463e-05
8.35073e-08
3.29306e-08
5.19564e-06
4.42053e-06
3.96607e-05
2.48867e-06
1.98011e-05
5.34003e-06
8.06175e-06
5.95768e-06
5.95147e-06
4.13755e-06
4.46956e-06
8.53258e-06
1.16882e-06
8.3932e-07
1.81961e-06
1.22683e-05
6.58003e-05
3.26883e-06
1.22884e-06
7.72012e-06
9.32937e-06
3.77982e-06
1.76367e-06
1.0201e-05
3.5178e-05
1.47822e-05
4.41163e-06
4.24835e-06
1.64558e-06
4.22713e-06
8.28862e-06
3.02358e-05
2.70051e-05
2.2824e-05
1.38527e-05
1.32756e-05
5.13471e-06
2.96885e-06
3.4398e-06
6.35296e-06
1.35649e-05
4.94653e-06
1.7049e-05
3.73839e-06
6.84031e-05
3.38056e-06
1.52533e-05
4.7828e-05
2.05901e-05
3.61974e-07
4.72997e-07
9.97457e-06
1.01536e-05
7.7409e-06
6.5318e-07
1.27914e-05
1.93372e-05
7.22884e-06
5.72068e-05
4.33192e-06
5.65746e-06
4.20558e-06
2.92423e-05
1.79692e-05
4.88463e-05
2.99757e-05
6.7471e-06
1.42815e-06
4.17575e-09
2.71151e-07
9.74169e-08
1.31795e-06
2.13497e-07
8.66951e-08
2.26303e-07
1.61111e-07
1.77892e-07
1.2523e-06
5.42502e-08
9.75717e-08
1.02115e-07
7.21845e-08
3.13956e-08
1.78775e-07
1.7576e-08
1.20275e-06
1.18888e-07
7.60959e-08
2.11149e-07
1.51685e-07
3.13077e-07
9.11491e-07
2.88747e-06
5.84574e-08
1.69863e-08
1.88434e-07
7.12054e-08
1.65278e-07
5.78997e-08
5.29042e-08
7.25305e-07
6.39299e-07
2.87621e-08
2.15912e-08
1.2311e-07
5.35837e-08
1.81757e-06
1.47993e-06
3.69566e-06
1.59578e-06
8.14707e-06
1.30823e-06
8.69755e-07
4.36241e-06
7.89034e-07
4.6521e-07
1.89899e-06
3.89983e-06
2.3366e-06
2.1816e-06
5.78163e-06
1.87405e-06
5.36667e-07
4.73706e-05
1.07167e-06
7.15028e-06
3.96976e-07
1.0344e-05
1.32635e-06
9.54808e-07
2.42596e-06
3.63944e-06
9.89572e-07
9.19804e-06
5.17883e-06
2.46863e-07
4.38534e-06
9.3437e-07
7.34423e-06
2.84586e-06
2.04529e-06
6.93966e-06
7.18246e-05
3.27774e-05
6.98425e-06
7.69779e-07
8.28384e-06
1.52312e-05
2.06384e-06
7.85878e-06
3.37164e-06
2.52436e-06
1.30952e-05
1.03583e-06
5.19317e-06
9.4751e-06
5.6401e-07
1.58002e-06
1.57443e-06
7.09004e-06
2.52535e-06
9.01934e-06
)


353
(
0.0008514
0.00188036
0.00472615
0.0130226
0.0307834
0.0404808
0.0008514
0.00188036
0.00472615
0.0130226
0.0307834
0.000819184
0.00177655
0.00432706
0.0113214
0.0252068
0.0271546
0.000759987
0.00159299
0.00366495
0.00876233
0.0176345
0.00136648
0.00292169
0.00626566
0.0112416
0.0141279
0.000769895
0.00469435
0.254389
0.00679406
0.000921688
0.00411536
0.000662307
0.00154238
0.00287409
0.00477183
0.00182261
0.00386834
0.00761972
0.0105018
0.00258452
0.00368252
0.000152102
0.000380916
0.00123566
0.00595974
0.224681
0.018362
0.000420397
0.00157875
0.00355202
0.00179003
0.127169
0.0166745
0.0217891
0.002101
0.00504756
5.36775e-05
1.51936e-05
9.70639e-06
2.31563e-06
3.68559e-05
3.32223e-05
2.92829e-05
3.5813e-05
3.26433e-05
9.4216e-07
2.20499e-05
3.02907e-06
8.86687e-07
1.03898e-05
2.95917e-06
1.71278e-05
0.00011933
8.37119e-06
6.28059e-05
1.07407e-05
1.26419e-06
5.68513e-05
2.77878e-05
1.96275e-06
3.22136e-05
2.50506e-05
1.08132e-06
1.42243e-05
1.43655e-06
3.28591e-06
4.61421e-06
5.51367e-07
3.61321e-06
1.6082e-06
1.77321e-06
5.59e-07
3.1358e-05
5.54667e-05
4.90868e-06
2.62339e-06
1.04751e-06
2.72625e-06
6.20239e-06
2.5388e-06
3.36392e-06
8.65042e-07
5.94973e-07
2.1843e-07
1.14615e-06
2.05646e-05
5.01602e-05
9.36487e-06
3.6896e-05
1.42244e-06
1.84708e-05
4.73421e-06
2.89303e-06
2.78187e-06
1.28705e-05
1.99324e-05
2.76854e-06
1.17888e-06
5.21526e-07
3.39544e-06
1.70339e-06
4.53323e-06
2.01707e-05
5.98497e-06
5.10353e-06
2.51036e-05
1.10444e-05
1.87243e-05
3.40557e-05
1.36622e-05
1.875e-06
5.08936e-05
3.23645e-05
3.57949e-06
8.5066e-07
6.00678e-06
2.2514e-06
1.18618e-05
6.55606e-06
2.78805e-05
4.05999e-05
1.79797e-05
4.66621e-05
3.27034e-05
4.00872e-05
3.34001e-06
1.52525e-05
7.68793e-06
1.85734e-05
2.58467e-06
1.40634e-05
5.43266e-07
1.88406e-06
9.48063e-06
8.34594e-07
1.28803e-06
1.22178e-05
8.1342e-06
3.92144e-06
2.22608e-05
1.89271e-05
8.92383e-06
1.22332e-05
1.32686e-05
1.85676e-07
1.83341e-07
2.92948e-07
6.69988e-07
1.02341e-06
2.00807e-05
2.93383e-05
1.24007e-05
2.01591e-06
1.04121e-05
1.09993e-05
1.73411e-05
3.72457e-07
1.39983e-06
4.75613e-06
3.41989e-06
2.76915e-06
2.13798e-06
1.81437e-05
3.60289e-06
1.08191e-05
4.92356e-06
2.94982e-06
1.9468e-06
5.89773e-06
2.72812e-06
2.6472e-06
6.54802e-06
3.72856e-07
1.1308e-06
1.33006e-06
1.56964e-06
8.30657e-06
3.56786e-05
2.39246e-06
2.4888e-06
1.8548e-06
2.8042e-06
6.95793e-07
3.04746e-07
6.37893e-06
1.3502e-05
7.91052e-06
9.05565e-07
6.20337e-06
2.4649e-06
1.63725e-06
1.83015e-06
7.20935e-06
1.24414e-05
2.18084e-05
6.80987e-06
6.71913e-06
3.10257e-06
1.969e-06
1.84852e-06
3.61379e-06
8.15944e-06
2.98743e-06
9.4269e-06
1.92454e-06
3.40282e-05
4.5969e-06
1.28745e-05
2.906e-05
7.86263e-06
6.59582e-07
7.09249e-07
1.91399e-06
4.29307e-06
3.91313e-06
2.02594e-06
3.2539e-06
6.90481e-06
1.6076e-06
3.11464e-05
9.63588e-07
2.37613e-06
1.81003e-06
1.20278e-05
1.84926e-05
2.24886e-05
1.15587e-05
7.51836e-07
7.17216e-09
6.99074e-08
7.25796e-08
4.21845e-08
5.60403e-07
1.03367e-07
5.59557e-08
6.75067e-08
3.52975e-08
5.52216e-08
3.59e-07
1.37979e-08
3.66829e-08
4.85959e-08
1.93534e-08
2.412e-07
2.50711e-08
2.97381e-09
4.14397e-07
2.70548e-08
1.99977e-08
4.57132e-08
7.11008e-08
9.5151e-08
2.5282e-07
8.92486e-07
8.99336e-09
2.0464e-08
2.5244e-07
1.02788e-08
3.16521e-08
2.19278e-08
2.46685e-08
2.70737e-07
2.99481e-07
4.03699e-09
5.2934e-09
7.86782e-08
3.54301e-08
5.6324e-08
2.90541e-07
3.19294e-07
8.79987e-07
1.00606e-06
1.06611e-06
1.98577e-06
7.94355e-07
4.88467e-07
5.35507e-07
3.19613e-06
3.90333e-07
6.98044e-07
1.05371e-06
1.19417e-06
6.25005e-07
2.31706e-06
6.21944e-07
1.79076e-07
1.62047e-05
3.06054e-07
1.98561e-06
1.02914e-07
4.81056e-06
6.29019e-07
1.43543e-07
1.13282e-06
1.56749e-06
4.23485e-07
6.44974e-07
6.65384e-06
4.86188e-06
4.16118e-07
2.58135e-06
1.67958e-06
5.58234e-07
6.31319e-07
1.39411e-06
5.44434e-07
6.91605e-07
4.83787e-06
3.08329e-05
9.24326e-06
3.93972e-06
5.36355e-06
1.38094e-06
3.74198e-06
1.51035e-05
9.97921e-06
5.12518e-06
1.04402e-06
3.23678e-06
4.32411e-06
1.03342e-06
4.88692e-06
1.94121e-06
2.99655e-06
6.25365e-06
1.0349e-06
2.3845e-06
1.55993e-06
4.1006e-06
2.09505e-06
4.94704e-06
)


413
(
0.0358016
0.0245256
0.010054
0.00374752
0.00154183
0.000851393
0.040506
0.0272634
0.0107853
0.00391173
0.00158442
0.0358016
0.0245256
0.010054
0.00374752
0.00154183
0.000819177
0.0256392
0.0183752
0.00826012
0.00331339
0.0161465
0.0122403
0.0061878
0.00274277
0.00125603
0.00125688
0.00995192
0.00625294
0.00271041
0.21715
0.0570652
0.00105888
0.000420352
0.000182722
0.000500233
0.0028298
0.00172593
0.0018445
0.000995182
0.00381659
0.00600263
0.107479
0.0399347
0.00604601
0.00123753
0.000744983
0.00175978
0.0437047
0.0206032
0.00895509
0.0522057
0.00492665
0.00114264
0.000269783
0.0113142
0.0590242
1.38208e-07
3.8425e-06
1.58541e-07
5.52766e-06
5.11756e-06
3.72381e-07
5.53188e-07
2.66407e-05
2.02262e-06
4.58364e-05
1.77102e-06
1.49333e-05
8.5025e-07
9.47488e-06
2.76148e-06
7.44991e-06
8.62041e-06
1.20817e-05
2.56041e-05
2.71479e-06
2.87616e-06
5.9667e-06
1.35794e-05
2.20408e-06
3.04373e-06
8.90803e-06
4.10006e-06
2.68535e-06
1.88741e-06
1.35297e-05
4.97877e-06
2.66034e-06
2.83962e-07
2.00573e-06
5.28926e-06
1.0776e-06
4.59142e-06
3.93659e-06
1.46314e-05
2.36891e-06
8.9535e-06
5.14409e-05
1.8206e-05
2.43556e-05
3.45872e-06
3.61881e-06
3.54392e-05
1.03137e-05
1.79703e-05
4.15512e-06
1.66697e-06
7.98759e-06
3.07173e-06
4.58986e-05
2.45737e-05
1.91114e-06
1.5814e-06
1.14884e-05
5.1791e-05
2.5066e-06
7.97677e-06
1.4077e-05
1.39165e-05
2.1412e-06
3.09611e-06
2.81885e-06
8.24824e-06
2.09725e-06
4.58919e-06
1.57226e-06
1.53076e-05
6.58748e-06
6.33893e-06
3.8031e-06
3.66511e-06
2.99071e-05
2.71378e-06
8.38358e-06
6.13983e-06
5.48692e-06
4.30943e-07
2.46293e-06
2.94122e-05
8.49637e-05
2.80613e-05
1.06227e-06
2.14721e-05
2.83645e-06
1.63397e-06
1.96944e-06
2.68224e-06
0.000125192
3.0744e-06
2.05344e-05
4.95348e-05
3.35329e-05
2.3321e-05
1.68463e-05
1.66962e-06
3.64355e-06
1.11489e-06
2.51125e-06
7.43448e-06
2.76853e-06
2.72333e-07
9.10216e-07
8.32894e-06
2.81962e-05
2.58722e-05
1.36924e-05
3.55868e-05
1.68389e-05
5.40487e-05
5.91773e-05
4.56574e-05
2.69719e-06
2.08306e-05
1.38771e-05
1.31024e-05
4.02186e-06
2.75647e-06
1.21259e-05
4.56896e-07
5.47063e-05
5.35332e-05
3.56763e-05
6.64847e-05
9.49065e-07
4.23873e-05
3.5063e-05
6.86887e-06
6.13703e-05
7.66776e-07
4.2959e-05
2.43141e-05
3.79714e-06
5.68471e-06
1.45851e-06
8.74999e-07
1.93302e-05
3.13688e-05
2.12736e-05
2.74496e-05
6.10316e-06
2.20155e-06
1.64222e-05
4.83555e-06
5.23746e-08
2.87397e-05
3.87865e-05
1.19273e-05
9.76308e-07
6.84067e-06
2.47339e-05
1.93734e-05
3.51949e-06
2.20503e-05
1.15924e-07
1.8724e-07
7.22313e-06
3.42121e-06
3.15806e-06
4.66159e-06
1.02702e-05
7.46512e-06
4.44221e-06
2.94622e-06
1.64508e-05
5.76968e-06
1.12198e-05
8.08403e-07
5.49952e-06
5.68399e-06
6.79808e-06
5.21872e-06
6.07545e-06
1.07585e-05
8.50092e-06
5.85122e-06
2.03023e-06
2.24176e-06
9.60381e-06
2.90052e-06
1.30308e-05
4.6585e-06
1.08616e-06
2.91129e-06
3.57669e-07
5.42314e-06
1.22299e-05
1.17062e-05
1.79899e-06
7.33288e-06
8.22556e-06
2.31298e-06
1.32015e-05
5.68855e-06
2.49357e-05
1.46601e-06
1.03311e-05
6.51583e-06
1.75436e-06
2.37829e-06
2.72497e-06
7.28379e-06
6.17134e-06
3.96597e-06
7.08745e-06
5.82754e-06
5.68494e-06
1.0494e-05
1.17785e-06
6.01991e-07
2.96571e-06
4.96402e-06
8.23454e-07
2.04263e-06
2.69637e-05
5.01337e-06
2.70604e-05
3.93167e-06
1.11521e-05
5.71174e-06
1.42074e-05
3.7445e-06
1.37572e-06
4.28219e-07
1.04492e-05
4.82363e-07
2.96428e-06
1.56585e-06
1.54838e-05
4.1722e-06
3.61219e-05
1.51183e-05
3.51584e-06
3.01885e-06
6.67682e-06
4.04274e-07
1.20946e-07
4.26172e-07
5.87437e-08
1.26516e-07
2.24817e-08
4.32406e-07
1.88888e-08
9.99463e-08
6.69094e-08
1.31986e-07
8.28994e-08
1.0805e-07
4.96232e-08
4.06943e-07
3.4529e-08
8.7925e-08
1.33674e-07
1.41546e-08
1.61806e-08
2.38584e-07
2.10284e-08
1.11553e-07
7.84827e-08
4.28094e-08
1.35406e-07
2.04217e-07
2.20664e-08
1.44772e-07
7.81472e-08
2.25424e-08
4.51836e-08
2.65343e-07
3.88591e-08
3.89491e-07
2.22751e-07
3.12174e-08
3.88036e-08
5.91451e-08
7.86755e-08
4.08929e-08
3.16282e-08
7.40508e-09
2.27532e-08
2.32199e-07
9.41018e-08
3.3673e-07
3.98356e-08
2.94484e-07
2.48732e-06
1.97325e-06
6.36616e-06
2.86427e-06
2.17057e-06
9.64824e-06
1.4397e-05
2.08611e-06
9.27863e-07
3.51645e-07
7.19318e-07
1.504e-06
8.28205e-07
3.56243e-06
6.14255e-06
2.99088e-07
1.56775e-07
3.6561e-06
1.08141e-07
1.07295e-05
3.22793e-07
6.06817e-07
1.53265e-06
3.78571e-07
1.42725e-07
2.71333e-06
9.12582e-07
4.58062e-06
5.76258e-07
1.04876e-06
2.02895e-06
1.47866e-06
2.18261e-07
3.65394e-06
1.01184e-05
7.14317e-07
5.0243e-06
5.35406e-06
3.52826e-06
4.68192e-06
4.4088e-06
1.54423e-05
1.082e-06
2.48333e-06
4.02364e-06
3.29026e-06
1.18849e-05
1.77804e-05
5.62721e-06
1.06824e-05
4.78982e-06
1.31922e-05
2.91726e-06
3.19899e-06
4.84623e-06
5.3393e-06
6.12797e-06
6.27514e-06
8.77388e-06
2.07574e-06
4.17412e-06
2.01897e-06
6.12849e-06
2.06442e-06
1.5668e-06
2.7007e-05
1.82316e-06
5.96253e-07
5.80259e-06
)


374
(
0.0245258
0.0358014
0.0245258
0.0100539
0.0037475
0.00188036
0.0272636
0.0405057
0.0272636
0.0107852
0.00391171
0.0245258
0.0358014
0.0245258
0.0100539
0.0037475
0.00177655
0.0183754
0.025639
0.0183754
0.00331337
0.0122404
0.0161464
0.0122404
0.00618778
0.00913314
0.0109023
0.00496489
0.00488119
0.0283566
0.0501938
0.0025277
0.00105887
0.000420348
0.00116932
0.00637724
0.00401311
0.00399316
0.0078303
0.00938204
0.039935
0.107478
0.039935
0.00554097
0.00181172
0.00522157
0.0280198
0.0447305
0.0201391
0.0341025
0.00883753
0.00077444
0.0157878
0.0615045
1.64021e-05
1.80933e-06
2.80577e-05
2.12591e-05
7.15947e-06
5.98536e-07
6.47176e-05
5.06748e-06
0.000120206
3.38836e-06
2.79112e-05
5.89356e-06
2.29718e-05
1.04801e-05
7.2456e-06
1.69084e-05
3.0256e-05
3.38596e-06
9.06459e-06
7.10763e-06
3.85626e-05
1.14511e-05
4.33466e-06
1.68101e-05
2.18019e-06
3.816e-05
8.46543e-05
5.86925e-05
3.69077e-05
1.49339e-05
1.1206e-05
0.000140256
3.0091e-05
2.70221e-05
1.54226e-05
3.9848e-06
2.04733e-05
7.25695e-06
0.000172391
4.7033e-05
9.19952e-06
1.94396e-05
0.000152704
4.41084e-06
1.7617e-05
3.11599e-05
1.86387e-05
8.55387e-06
1.27219e-05
9.07258e-06
2.17626e-05
1.08552e-05
1.33472e-05
6.48233e-06
4.16249e-05
1.91713e-05
2.40423e-05
9.76603e-06
8.74848e-06
0.000102449
1.11675e-05
2.95858e-05
1.97714e-05
1.85384e-05
3.42539e-06
9.77799e-06
9.6459e-05