/*--------------------------------*- C++ -*----------------------------------*\
| =========                 |                                                 |
| \\      /  F ield         | OpenFOAM: The Open Source CFD Toolbox           |
|  \\    /   O peration     | Version:  2.2.x                                 |
|   \\  /    A nd           | Web:      www.OpenFOAM.org                      |
|    \\/     M anipulation  |                                                 |
\*---------------------------------------------------------------------------*/
FoamFile
{
    version     2.0;
    format      ascii;
    class       labelListList;
    location    "constant";
    object      globalFaceFaces;
}
// * * * * * * * * * * * * * * * * * * * * * * * * * * * * * * * * * * * * * //


1014
(

406
(
33
34
35
36
37
38
39
40
41
42
43
44
45
46
47
48
49
50
51
52
53
54
55
56
57
58
61
62
63
64
65
66
67
68
69
70
71
72
73
74
75
76
77
78
79
80
81
82
83
84
85
86
87
88
89
90
91
126
133
136
140
141
142
143
147
148
149
150
151
152
157
158
159
162
163
164
165
167
168
169
171
172
174
175
176
177
178
181
186
188
190
194
196
197
198
200
201
202
203
204
206
207
208
210
212
213
214
216
217
218
219
220
222
223
224
225
228
229
231
232
233
234
235
236
237
238
239
240
241
242
243
244
246
267
268
269
271
272
274
275
276
277
278
302
303
304
305
306
307
308
309
310
311
313
316
318
324
325
331
335
337
338
340
341
343
344
345
347
348
349
350
352
354
355
367
373
377
380
381
382
384
385
386
387
388
389
390
391
394
398
402
409
410
412
413
415
416
417
419
420
422
425
430
432
437
438
439
440
442
443
444
447
448
449
453
464
467
492
493
494
498
499
501
502
504
505
507
510
511
512
513
515
517
518
520
521
522
525
528
533
548
554
555
566
567
568
569
570
571
575
577
578
581
584
585
586
587
588
589
590
591
593
594
596
597
598
600
602
603
609
617
618
620
621
622
623
624
625
626
628
631
634
636
638
653
654
655
656
658
659
660
666
668
671
672
674
675
677
685
688
689
690
694
695
696
697
700
703
706
707
709
710
711
713
714
715
721
722
725
729
734
736
739
740
741
743
746
749
752
758
759
760
761
762
763
768
770
771
772
778
781
783
788
793
794
798
800
802
804
814
816
818
820
824
825
828
830
831
839
840
841
843
844
845
855
856
861
862
869
887
890
892
895
896
899
900
901
902
903
904
905
907
908
909
910
912
913
916
919
920
921
922
923
931
934
936
937
939
941
946
953
955
963
973
980
986
)


349
(
33
34
35
36
37
38
39
40
41
42
43
44
45
46
47
48
49
50
51
52
53
54
55
56
57
58
59
60
61
62
63
64
65
66
67
68
69
70
71
72
73
74
75
76
77
78
79
80
81
82
83
84
85
86
87
88
89
90
91
126
133
136
140
141
142
143
147
148
151
152
157
159
164
165
167
168
169
171
176
177
178
181
188
194
197
198
200
201
202
203
204
206
207
208
210
212
213
214
216
217
219
220
222
223
224
225
228
229
231
232
233
234
235
236
237
238
239
240
241
242
243
244
246
267
268
269
271
272
275
276
277
278
302
303
304
305
306
307
308
309
310
311
313
316
318
324
335
337
340
343
344
345
347
349
350
352
354
355
357
366
367
373
377
380
381
384
385
386
388
389
390
394
398
399
402
409
410
413
415
416
417
419
420
422
430
432
437
438
439
440
442
443
444
447
448
449
493
504
512
515
521
522
525
528
531
533
555
566
567
568
569
570
575
577
578
581
585
587
588
589
590
591
593
594
596
597
598
600
603
620
621
623
624
625
626
628
634
636
638
645
653
654
655
658
659
660
666
668
669
674
675
685
688
689
690
694
695
696
697
700
707
709
710
711
713
714
721
722
725
729
734
736
739
740
741
743
746
749
752
754
756
758
759
760
762
763
768
770
771
772
778
781
783
788
793
800
802
804
808
814
816
818
820
824
825
828
830
831
839
840
841
843
856
861
862
869
887
890
895
896
899
900
901
904
905
907
908
909
910
912
913
916
920
921
922
923
931
934
936
937
939
941
946
953
955
963
980
984
986
)


255
(
33
34
35
36
37
38
39
40
41
42
43
44
45
46
47
48
49
50
51
52
53
54
55
56
57
58
59
60
61
62
63
64
65
66
67
68
69
70
71
72
73
74
75
76
77
78
79
80
81
82
83
84
85
86
87
88
89
90
91
126
133
136
151
152
159
164
167
168
171
176
177
188
194
197
200
202
203
204
206
208
210
212
214
217
220
228
229
231
232
233
234
235
236
237
238
240
241
242
243
244
246
268
269
272
275
282
302
304
305
306
307
308
309
310
337
340
343
344
349
350
352
357
360
362
366
369
380
381
386
389
394
409
410
413
415
416
417
419
422
428
430
432
437
438
440
442
444
448
449
528
531
533
538
543
545
547
549
555
566
567
568
569
570
577
578
581
589
591
593
594
596
598
603
634
636
638
639
641
642
644
645
653
655
658
659
668
674
675
685
697
700
707
709
721
722
729
734
740
741
743
746
749
754
756
758
759
760
762
763
814
818
820
822
824
828
830
831
839
841
843
848
854
856
858
861
864
890
895
896
899
900
901
904
907
908
909
910
912
913
916
920
921
937
939
941
946
953
955
963
972
980
984
986
1005
1010
)


267
(
33
34
35
36
37
38
39
40
41
42
43
44
45
46
47
48
49
50
51
52
53
54
55
56
57
58
59
60
61
62
63
64
65
66
67
68
69
70
71
72
73
74
75
76
77
78
79
80
81
82
83
84
85
86
87
88
89
90
91
92
97
98
99
100
102
110
118
119
124
127
128
129
130
134
135
138
208
228
238
242
247
249
254
260
261
279
280
281
282
284
287
291
293
294
297
299
301
310
315
316
318
319
320
324
325
326
350
355
357
358
359
360
362
364
366
367
369
373
377
380
384
389
397
398
399
402
404
405
409
410
411
415
417
419
422
428
430
432
435
436
438
440
442
444
448
449
450
451
453
456
464
467
470
472
473
478
479
480
482
498
507
522
525
528
530
531
532
533
536
538
543
545
547
549
550
551
552
553
558
559
560
562
581
603
604
607
608
609
617
634
636
637
638
639
641
642
644
645
653
658
659
666
667
668
669
675
678
680
690
695
698
699
700
704
707
710
711
714
718
721
722
729
734
740
743
746
749
754
755
756
758
759
762
763
764
767
819
820
822
824
828
830
831
839
841
843
848
854
856
858
859
864
878
909
913
953
955
963
968
972
980
984
991
993
1005
1006
1010
)


338
(
33
34
35
36
37
38
39
40
41
42
43
44
45
46
47
48
49
50
51
52
53
54
55
57
58
59
60
62
63
64
65
66
67
68
69
70
71
72
73
74
75
76
77
78
79
80
81
82
83
84
85
86
87
88
89
90
92
93
94
97
98
99
100
102
106
110
112
115
116
118
119
120
122
124
126
127
128
129
130
131
133
134
135
136
138
140
141
193
194
204
214
217
229
238
247
249
250
254
258
260
261
263
265
277
279
280
281
282
284
287
291
293
294
297
299
300
301
308
310
315
316
318
319
320
322
324
325
326
327
331
335
337
350
355
356
357
358
359
360
362
364
366
367
368
369
371
373
377
384
389
396
397
398
399
400
402
404
405
409
410
411
417
419
422
427
428
429
430
432
434
435
436
440
442
448
449
450
451
453
455
456
461
464
467
468
470
472
473
476
477
478
479
480
482
485
498
507
525
528
530
531
532
533
536
537
538
540
543
544
545
547
549
550
551
552
553
558
559
560
562
604
606
607
608
609
612
614
617
618
625
628
631
634
636
637
638
639
641
642
643
644
645
653
658
663
666
667
669
678
680
689
690
694
695
696
698
699
700
704
707
709
710
711
713
714
718
721
722
729
734
735
737
746
749
754
755
756
757
758
759
764
767
770
772
778
784
788
798
801
806
808
809
815
817
819
820
822
824
828
831
839
841
843
848
854
856
858
859
864
867
868
875
878
884
912
913
946
949
953
955
957
959
963
968
972
980
983
984
986
990
991
993
995
1001
1003
1005
1006
1010
)


353
(
33
34
35
36
37
38
39
40
41
42
43
44
45
46
47
48
49
50
51
52
53
54
56
57
58
59
60
61
62
63
64
65
66
67
68
69
70
71
72
73
74
75
76
77
78
79
80
81
82
83
84
85
86
87
88
89
90
91
92
93
94
95
97
98
99
100
102
104
106
110
112
115
116
118
119
120
122
124
126
127
128
129
130
131
133
134
135
136
138
140
141
197
233
242
247
249
250
252
254
256
258
260
261
263
265
276
277
279
280
281
282
284
287
289
290
291
293
294
297
299
300
301
310
315
316
317
318
319
320
322
323
324
325
326
327
328
331
335
350
355
356
357
358
359
360
361
362
364
365
366
367
368
369
371
373
377
384
389
396
397
398
399
400
402
404
405
409
410
411
417
422
427
428
429
430
432
434
435
436
440
442
450
451
452
453
455
456
461
464
467
468
470
472
473
475
476
477
478
479
480
482
485
498
507
525
528
530
531
532
533
535
536
537
538
540
543
544
547
549
550
551
552
553
558
559
560
562
604
606
607
608
609
612
614
616
617
618
625
631
634
636
637
638
639
641
642
643
644
645
646
663
664
666
667
669
678
680
689
690
694
695
696
698
699
704
705
707
709
710
711
713
714
718
721
722
729
734
735
737
746
749
754
755
756
757
758
759
764
767
769
770
771
778
784
785
788
792
798
801
806
808
809
815
819
820
822
824
828
831
839
841
843
848
854
856
858
859
864
866
867
868
875
878
883
884
896
912
913
946
949
953
955
956
957
959
963
964
968
971
972
980
983
984
986
990
991
993
995
1001
1003
1005
1006
1010
)


413
(
33
34
35
36
37
38
39
40
41
42
43
44
45
46
47
48
49
50
51
52
53
55
56
57
58
59
60
61
62
63
65
66
67
68
69
70
71
72
73
74
75
76
77
78
79
80
81
82
83
84
85
86
87
88
89
90
91
111
126
133
136
140
141
142
143
147
148
149
150
151
152
157
158
159
162
163
164
165
167
168
169
171
172
174
175
176
177
178
181
185
186
188
190
192
193
194
196
197
198
200
201
202
203
204
206
207
208
210
212
213
214
216
217
218
219
220
222
223
224
225
228
229
231
232
233
234
235
236
237
238
239
240
241
242
243
244
246
265
267
268
269
271
272
274
275
276
277
278
302
303
304
305
306
307
308
309
310
311
313
318
324
325
331
335
336
337
338
340
341
343
344
345
347
348
349
350
352
354
367
373
377
380
381
382
384
385
386
387
388
389
390
391
394
398
409
410
412
413
415
416
417
419
420
422
425
437
438
439
440
442
443
444
445
447
448
449
453
464
467
490
491
492
493
494
498
499
501
502
504
505
507
510
511
512
513
515
517
518
520
521
522
525
528
533
555
566
567
568
569
570
571
575
577
578
581
584
585
586
587
588
589
590
591
593
594
596
597
598
601
602
603
609
617
618
620
621
622
623
624
625
626
627
628
630
631
633
636
638
653
654
655
656
658
659
660
662
666
668
671
672
674
675
676
677
685
688
689
690
694
695
696
697
700
703
706
707
709
710
711
713
714
715
721
722
725
733
734
736
739
740
741
742
743
746
749
752
758
759
760
761
762
763
766
768
770
771
772
778
781
783
788
793
794
798
802
804
814
816
818
820
824
825
828
830
839
840
841
842
843
844
845
853
855
856
861
862
869
887
890
892
895
896
899
900
901
902
903
904
905
907
908
909
910
912
913
916
919
920
921
922
923
931
934
935
936
937
939
941
946
955
973
980
986
)


374
(
33
34
35
36
37
38
39
40
41
42
43
44
45
46
47
48
49
50
51
52
54
55
56
57
58
61
62
63
64
65
66
67
68
69
70
71
72
73
75
76
77
78
79
80
81
82
83
84
85
86
87
89
90
91
126
133
136
140
141
142
143
147
148
151
152
157
159
164
165
167
168
169
171
176
177
178
181
188
190
197
198
200
201
202
203
204
206
207
208
210
212
213
214
216
217
219
220
222
223
224
225
228
229
231
232
233
234
235
236
237
238
239
240
241
242
243
244
246
265
267
268
269
271
272
274
275
276
277
278
302
303
304
305
306
307
308
309
310
311
313
316
318
324
325
331
335
337
340
341
343
344
345
347
348
349
350
352
354
355
367
373
377
380
381
384
385
386
387
388
389
391
394
398
402
409
410
412
413
415
416
417
419
420
422
425
430
432
437
438
439
440
442
443
444
447
448
449
453
464
467
492
493
494
498
499
501
504
507
510
511
512
513
515
520
521
522
525
528
533
566
567
568
569
570
571
575
577
578
581
584
585
587
588
589
590
591
593
594
596
597
598
601
603
609
617
618
620
621
623
624
625
626
628
631
634
636
638
653
654
655
656
658
659
660
662
666
668
672
674
675
677
685
688
689
690
694
695
696
697
700
703
707
709
710
711
713
714
721
722
729
734
736
739
740
741
743
746
749
752
758
759
760
761
762
763
768
769
770
771
772
778
781
783
788
793
794
798
802
804
814
816
818
820
824
825
828
830
831
839
840
841
843
844
845
853
855
856
861
862
869
887
890
895
896
899
900
901
902
903
904
905
907
908
909
910
912
913
916
920
921
922
923
931
934
936
937
939
941
946
953
955
963
980
986
)


265
(
33
34
35
36
37
38
39
40
41
42
43
44
45
46
47
48
49
50
51
52
53
54
55
56
57
58
59
60
61
62
63
64
65
66
67
68
69
70
71
73
74
75
76
77
78
79
80
81
82
83
84
85
86
87
88
89
90
91
119
126
127
133
136
140
141
147
148
151
152
159
164
167
168
171
176
177
188
197
200
202
203
204
206
208
210
212
214
217
220
228
229
231
232
233
234
235
236
237
238
239
240
241
242
243
244
246
267
268
269
272
275
278
302
303
304
305
306
307
308
309
310
318
337
343
344
349
350
352
357
360
369
380
381
385
386
394
397
398
399
402
409
410
413
415
416
417
419
420
422
428
430
432
437
438
440
442
444
448
449
528
531
533
566
567
568
570
575
577
578
581
585
589
591
593
594
596
597
598
603
634
636
638
639
641
642
644
645
653
655
658
659
668
674
675
685
690
696
700
707
709
711
714
721
722
729
734
740
741
743
746
749
754
756
758
759
760
762
763
769
770
771
772
778
802
804
814
818
820
822
824
828
830
831
839
841
843
854
855
856
861
864
895
896
899
900
901
904
905
907
909
910
912
913
916
920
921
923
939
941
946
953
955
963
980
986
)


284
(
33
34
35
36
37
38
39
40
41
42
43
44
45
46
47
48
49
50
51
52
53
54
55
57
58
59
60
61
62
63
64
65
66
67
68
69
70
71
72
73
74
75
76
77
78
79
80
81
82
83
84
85
86
87
88
89
90
92
93
94
97
98
99
100
102
110
116
118
119
124
126
127
128
129
130
133
134
135
136
138
140
141
204
214
217
228
247
249
254
260
261
265
279
280
281
282
284
287
293
294
297
299
301
308
310
315
316
318
319
324
325
326
331
335
337
350
355
357
358
359
360
362
364
366
367
368
369
371
373
377
384
389
397
398
399
402
404
405
409
410
411
417
419
422
427
428
430
432
435
436
440
442
448
449
450
451
453
456
461
464
467
468
470
472
473
476
478
479
480
482
498
507
522
525
528
530
531
532
533
536
538
540
543
544
547
549
550
551
552
553
558
559
560
562
604
606
607
608
609
614
617
618
620
631
634
636
637
638
639
641
642
643
644
645
653
658
666
667
669
678
680
689
690
694
695
696
698
699
700
704
707
709
710
711
713
714
718
721
722
729
734
735
746
749
754
755
756
758
759
762
763
764
767
784
806
815
819
820
822
824
828
831
839
841
843
848
854
856
858
859
864
953
955
963
968
972
980
983
984
991
993
1005
1006
1010
)


338
(
33
34
35
36
37
38
39
40
41
42
43
44
45
46
47
48
49
50
52
53
54
56
57
58
59
60
61
62
63
64
65
66
67
68
69
70
71
72
73
74
75
76
77
78
79
80
81
82
83
84
85
86
87
88
89
90
91
92
93
94
95
97
98
99
100
102
106
110
112
115
116
118
119
120
122
124
126
127
128
129
130
133
134
135
136
138
140
141
193
197
233
235
242
247
249
250
254
258
260
261
263
265
276
277
279
280
281
282
284
287
289
291
293
294
297
299
300
301
310
315
316
318
319
320
322
324
325
326
327
328
331
335
350
355
356
357
358
359
360
362
364
365
366
367
368
369
371
373
384
389
396
397
398
399
400
402
404
405
409
410
411
417
422
427
428
429
430
432
434
435
436
440
442
450
451
452
453
455
456
461
464
467
468
470
472
473
475
476
477
478
479
480
482
485
498
507
525
530
531
532
535
536
537
538
540
543
544
547
549
550
551
552
553
558
559
560
562
604
606
607
608
609
612
614
616
617
618
625
628
631
634
636
637
638
639
641
642
643
644
645
646
663
664
666
667
669
678
680
689
690
694
695
696
698
699
700
704
707
709
710
711
713
714
718
721
722
729
734
735
737
746
749
754
755
756
757
758
759
764
767
769
770
771
778
784
785
788
792
798
801
806
808
809
815
819
820
822
824
828
831
839
841
843
848
854
856
858
859
864
867
868
875
878
884
912
913
946
949
953
955
957
959
963
968
972
980
983
984
986
990
991
993
995
1001
1003
1005
1006
1010
)


425
(
33
34
35
36
37
38
39
40
41
42
43
44
45
46
47
48
50
51
52
53
55
56
57
58
59
60
61
62
63
64
65
66
67
68
69
70
71
72
73
74
75
76
77
78
79
80
81
82
83
84
85
86
88
89
90
91
111
126
136
140
141
142
143
144
147
148
149
150
151
152
153
154
157
158
159
160
162
163
164
165
167
168
169
171
172
174
175
176
177
178
181
182
185
186
188
190
192
193
196
197
198
200
201
202
203
204
206
207
208
210
212
213
214
216
217
218
219
220
222
223
224
225
228
229
231
232
233
234
235
236
237
238
239
240
241
242
243
244
246
265
267
268
269
271
272
274
275
276
277
278
300
302
303
304
305
306
307
308
309
311
312
313
318
331
335
336
337
338
339
340
341
343
344
345
347
348
349
350
351
352
354
375
377
380
381
382
384
385
386
387
388
390
391
394
398
409
410
412
413
415
416
417
419
420
422
425
426
437
438
439
442
443
444
445
447
448
449
464
467
490
491
492
493
494
498
499
501
502
504
505
507
510
511
512
513
515
517
518
520
521
522
525
528
529
533
563
566
567
568
569
570
571
575
577
578
581
584
585
586
587
588
589
590
591
593
594
596
597
598
601
602
603
609
620
621
622
623
624
625
626
627
628
630
631
633
636
638
649
650
652
653
654
655
656
658
659
660
662
666
668
671
672
674
675
676
677
685
688
689
690
695
696
697
700
701
702
703
706
707
708
709
711
713
714
715
723
725
730
733
734
736
739
740
741
742
743
744
746
747
748
749
750
752
758
759
760
761
762
763
766
768
769
770
771
772
778
781
783
788
791
793
794
798
802
804
814
816
818
825
828
830
832
839
840
842
844
845
850
853
855
856
861
862
880
887
890
891
892
895
896
898
899
900
901
902
903
904
905
907
908
909
910
911
912
913
916
919
920
921
922
923
929
931
934
935
936
937
939
941
942
946
950
955
982
986
)


392
(
33
34
35
36
37
38
39
40
41
42
43
44
45
46
47
48
50
51
52
53
55
56
57
58
59
60
61
62
63
65
66
67
68
69
70
71
72
73
74
75
76
77
78
79
80
81
82
83
84
85
86
87
88
89
90
91
116
126
136
140
141
143
144
147
148
149
150
151
152
153
157
159
162
164
165
167
168
169
171
174
175
176
177
178
181
182
186
188
190
192
193
197
198
200
201
202
203
204
206
207
208
210
212
213
214
216
217
219
220
222
223
224
225
228
229
231
232
233
234
235
236
237
238
239
240
241
242
243
244
246
265
267
268
269
271
272
274
275
276
277
278
300
302
303
304
305
306
307
308
309
311
313
318
325
331
335
337
338
340
341
343
344
345
347
348
349
350
351
352
354
377
380
381
384
385
386
387
388
391
394
398
409
410
412
413
415
416
417
419
420
422
425
426
437
438
439
442
443
444
445
447
448
449
464
467
490
491
492
493
494
498
499
501
502
504
507
510
511
512
513
515
518
520
521
522
525
528
529
563
566
567
568
569
570
571
575
577
578
581
584
585
587
588
589
590
591
593
594
596
597
598
601
603
609
618
620
621
623
624
625
626
627
628
630
631
633
636
638
649
650
652
653
654
655
656
658
659
660
662
666
668
672
674
675
676
677
685
688
689
690
694
695
696
697
700
703
707
709
711
713
714
723
733
734
736
739
740
741
742
743
744
746
747
749
750
752
758
759
760
761
762
763
768
769
770
771
772
778
781
783
788
793
794
798
802
804
814
816
818
824
825
828
830
832
839
840
841
842
844
845
850
853
855
856
861
862
887
890
891
892
895
896
899
900
901
902
903
904
905
907
908
909
910
912
913
916
920
921
922
923
931
934
936
937
939
941
942
946
950
955
982
986
)


353
(
33
34
35
36
37
38
39
40
41
42
43
44
45
46
48
49
50
51
52
55
56
57
58
59
60
61
62
63
64
65
66
67
68
69
70
71
72
73
74
75
76
77
78
79
80
81
82
83
84
85
86
88
89
90
91
116
126
136
140
141
143
144
147
148
151
152
153
157
159
160
164
165
167
171
174
175
176
177
178
181
182
188
190
192
193
197
200
202
203
204
206
207
208
217
219
220
223
224
228
229
231
232
234
236
237
238
239
240
241
243
246
265
267
268
269
271
272
274
275
276
277
278
300
302
303
304
305
306
307
309
311
312
313
318
325
331
335
337
338
343
344
347
348
349
350
351
352
354
371
374
375
380
381
383
385
386
387
388
394
398
409
410
412
413
415
416
417
419
420
422
425
426
437
438
439
441
443
445
448
449
453
464
467
490
491
492
493
494
498
499
501
504
507
510
512
513
515
518
520
521
522
525
529
535
563
566
567
568
570
571
575
577
578
581
584
585
589
591
593
594
596
597
598
601
609
618
620
621
623
624
625
626
627
628
630
631
635
646
648
649
650
652
653
654
655
656
660
662
668
672
674
675
676
677
685
688
690
695
696
700
702
703
707
708
709
711
713
714
720
723
728
730
731
733
736
739
740
741
742
743
744
747
748
750
751
752
760
761
762
763
769
770
772
778
781
783
788
793
794
798
802
804
813
814
816
818
821
824
825
828
830
832
839
840
842
844
845
850
853
855
861
862
890
891
895
896
899
900
901
902
904
905
907
909
910
912
913
916
920
921
923
934
936
937
939
941
942
946
950
955
978
982
986
)


173
(
33
34
35
36
37
38
39
40
41
42
43
44
45
46
47
48
49
50
51
53
54
55
56
58
59
60
61
62
63
64
65
66
67
68
69
70
71
72
73
74
75
77
78
79
80
81
82
83
84
85
86
87
88
89
90
91
118
119
126
129
133
138
140
141
208
214
233
235
237
242
244
246
254
260
261
265
281
282
284
297
301
315
316
318
324
325
326
331
357
358
359
360
362
367
377
380
384
389
398
399
402
405
409
410
419
422
428
430
432
435
436
442
448
449
529
535
536
552
553
559
563
566
567
571
575
589
596
597
601
634
636
637
638
639
641
642
643
644
645
646
648
667
669
678
695
699
707
710
721
722
729
734
746
749
754
756
758
759
763
819
820
821
822
824
828
831
839
841
848
854
856
858
864
)


302
(
33
34
35
36
37
38
39
40
41
42
43
44
45
46
47
48
49
50
52
53
54
55
56
57
58
59
60
61
62
63
64
65
67
68
69
70
71
72
73
74
75
76
77
78
79
80
81
82
83
84
85
86
87
88
89
90
91
92
93
94
96
97
98
99
100
102
106
110
115
116
118
119
124
127
128
129
130
133
134
135
136
138
140
141
193
247
249
254
258
260
261
263
265
276
277
278
279
280
281
282
284
287
293
294
297
299
300
301
311
312
313
315
316
317
318
319
322
324
325
326
327
328
331
335
350
355
356
357
358
359
360
362
364
365
366
367
368
369
371
374
383
384
389
396
397
398
399
402
404
405
410
411
427
428
429
430
431
432
433
434
435
436
441
450
451
452
453
455
456
461
464
467
468
470
472
473
475
476
478
479
480
482
485
498
507
525
529
530
532
535
536
538
540
543
544
547
549
550
551
552
553
558
559
560
562
563
601
604
606
607
608
609
610
612
614
616
617
618
625
631
634
635
637
639
641
642
643
644
645
646
648
650
663
664
666
667
669
678
680
689
690
694
695
696
699
704
710
711
713
714
718
721
722
729
735
737
745
754
755
756
759
764
767
769
784
785
798
801
806
808
809
813
815
819
820
821
822
824
828
831
839
841
848
854
858
864
868
953
957
959
963
968
978
980
983
990
991
993
1001
1005
1006
1010
)


320
(
33
34
35
36
37
38
39
40
41
42
43
46
47
48
49
51
52
53
54
55
56
57
58
59
60
61
62
63
64
65
67
68
69
70
71
72
73
74
75
76
77
78
79
80
81
82
83
84
85
86
87
88
89
90
91
92
93
94
95
96
97
98
99
100
102
104
106
110
112
115
116
118
119
120
122
124
127
128
129
130
133
134
135
138
140
141
193
247
249
250
254
256
258
260
261
263
265
266
276
277
279
280
281
282
284
287
293
294
297
299
300
301
311
312
314
315
316
317
319
322
324
325
326
327
328
329
331
355
356
357
358
359
360
362
364
365
366
368
369
371
374
375
383
396
397
399
402
403
404
405
408
411
427
428
429
430
431
432
433
434
435
436
441
446
450
451
452
453
455
456
461
462
464
467
468
470
472
473
475
476
477
478
479
480
482
485
507
529
530
532
535
536
537
538
540
543
544
547
549
550
551
552
553
558
559
560
562
563
601
604
606
607
608
609
610
612
614
615
616
617
618
634
635
637
639
641
642
643
644
645
646
648
649
650
652
663
664
667
669
678
680
686
687
692
699
704
710
718
720
721
722
728
729
730
732
735
737
745
748
751
754
755
756
757
764
767
769
773
780
784
785
792
798
799
801
806
808
809
813
815
819
821
822
824
828
831
839
848
854
858
859
864
866
867
868
875
878
883
949
950
953
957
959
963
968
972
978
980
982
983
990
991
993
995
999
1001
1003
1005
1006
1010
)


341
(
33
34
35
36
37
38
39
40
41
42
43
44
45
46
47
48
49
50
51
52
53
54
55
56
57
58
59
60
61
62
63
64
65
67
68
69
70
71
72
73
74
75
76
77
78
79
80
81
82
83
84
85
86
87
88
89
90
91
92
93
94
95
96
97
98
99
100
102
104
106
110
112
115
116
118
119
120
122
124
127
128
129
130
133
134
135
138
140
141
193
247
249
250
252
254
256
258
260
261
263
265
266
276
277
279
280
281
282
284
287
289
290
291
293
294
297
299
300
301
311
312
314
315
316
317
318
319
320
322
323
324
325
326
327
328
331
335
355
356
357
358
359
360
361
362
363
364
365
366
367
368
369
371
373
374
383
384
389
396
397
398
399
400
402
403
404
405
408
411
427
428
429
430
431
432
433
434
435
436
441
450
451
452
453
454
455
456
461
462
464
467
468
470
472
473
475
476
477
478
479
480
482
485
507
529
530
531
532
535
536
537
538
540
543
544
547
549
550
551
552
553
558
559
560
562
563
604
606
607
608
609
610
612
614
615
616
617
618
634
635
637
639
641
642
643
644
645
646
648
663
664
667
669
678
680
686
687
689
692
694
695
696
698
699
704
705
710
718
721
722
729
732
735
737
745
754
755
756
757
759
764
767
769
773
780
784
785
792
798
801
806
808
809
813
815
819
820
821
822
824
828
831
839
841
848
854
858
859
864
866
867
868
875
878
881
883
884
946
949
953
956
957
959
963
968
971
972
978
980
983
986
990
991
993
995
999
1001
1003
1005
1006
1010
)


28
(
33
34
35
36
39
40
41
44
45
50
51
55
56
61
65
66
77
78
79
80
82
83
84
85
86
90
91
725
)


225
(
33
34
35
37
38
39
40
41
42
43
44
45
46
47
48
49
50
51
52
53
54
55
56
57
58
59
60
61
62
63
64
65
66
67
68
69
70
71
72
73
74
75
76
77
78
79
81
82
83
84
85
86
87
88
89
90
91
93
96
116
143
144
147
148
151
153
154
156
157
160
164
165
167
171
174
175
176
178
182
188
190
192
193
202
206
217
219
224
228
232
234
236
238
239
266
267
268
269
271
272
273
274
275
302
303
304
307
309
313
317
322
328
329
338
343
344
347
348
351
352
354
375
383
385
387
388
394
396
408
412
414
416
420
421
425
426
431
433
437
439
441
445
446
469
471
490
491
492
493
494
498
499
501
504
507
510
512
513
515
518
520
521
522
605
606
607
610
611
612
614
615
616
621
626
627
630
632
633
663
664
665
672
676
677
686
687
688
692
701
702
703
708
712
736
739
742
744
769
773
780
785
791
794
799
801
802
808
809
810
813
815
828
832
840
845
850
855
902
905
911
923
934
936
942
978
)


243
(
33
35
36
37
38
40
42
43
44
45
47
48
49
50
51
52
53
54
55
56
57
58
59
60
61
62
63
64
66
67
67
68
69
70
71
72
73
74
75
76
77
79
80
81
82
83
84
85
87
88
89
90
91
92
93
94
96
97
98
100
110
116
118
119
124
127
129
130
138
141
144
156
160
192
193
247
254
260
261
265
279
281
282
284
297
300
301
311
312
313
314
315
316
317
319
322
324
325
326
328
329
331
342
351
356
358
359
362
364
365
368
371
374
375
383
387
396
399
404
405
408
411
414
426
429
431
433
435
436
441
445
446
450
451
453
456
461
464
467
468
470
472
473
476
479
480
482
498
499
507
513
518
529
535
536
540
544
550
552
553
558
559
563
584
601
604
605
606
607
608
609
610
611
612
614
616
617
618
635
637
641
642
643
644
646
648
649
650
663
664
665
667
669
678
680
686
687
692
699
701
704
708
712
720
723
728
730
731
733
735
737
742
744
745
747
748
750
751
764
767
769
773
780
784
785
798
799
801
806
808
809
810
813
815
819
822
848
858
968
983
990
1001
1010
)


303
(
35
36
37
38
41
42
43
44
46
47
48
49
50
51
52
53
54
55
56
57
58
59
60
61
62
63
64
65
66
67
68
69
70
71
72
73
74
75
76
78
79
80
81
82
84
85
86
87
88
89
90
91
92
93
94
96
97
98
99
100
102
106
110
112
115
116
118
119
124
127
128
129
130
134
138
140
141
144
153
156
160
190
193
247
249
254
256
258
260
261
263
265
266
279
280
281
282
284
287
294
297
299
300
301
311
312
313
314
315
316
317
319
322
325
326
327
328
329
330
342
351
356
358
359
360
362
364
365
368
371
374
375
383
396
397
399
403
404
405
408
411
414
421
426
427
428
429
431
433
434
435
436
441
445
446
450
451
452
453
454
455
456
461
462
468
470
472
473
475
476
478
479
480
482
485
529
532
535
536
540
544
547
550
551
552
553
558
559
560
562
563
571
584
601
604
605
606
607
608
610
611
612
614
615
616
617
635
637
639
641
642
643
644
646
648
649
650
652
662
663
664
665
667
669
678
680
686
687
692
699
701
702
704
708
712
718
720
723
728
730
731
732
733
735
737
742
744
745
747
748
750
751
754
755
756
764
767
769
773
780
784
785
791
792
797
799
801
806
808
809
810
813
815
819
821
822
824
828
832
842
844
848
850
853
854
858
864
867
868
957
959
968
978
983
990
991
993
996
999
1001
1005
1006
1010
)


338
(
33
34
35
36
37
38
40
41
42
43
44
45
46
47
48
49
50
51
52
53
54
55
56
57
58
59
60
61
62
63
64
65
66
67
68
69
70
71
72
73
74
75
76
77
78
79
80
81
82
83
84
85
86
87
88
89
90
91
92
93
94
95
96
97
98
99
100
102
104
106
110
112
115
116
118
119
120
122
124
127
128
129
130
134
135
138
140
141
160
193
247
249
250
252
254
256
258
260
261
263
265
266
273
279
280
281
282
284
287
289
290
293
294
297
299
300
301
311
312
314
315
316
317
319
322
324
325
326
327
328
329
330
342
356
357
358
359
360
361
362
363
364
365
366
368
369
371
374
375
383
396
397
399
400
402
403
404
405
408
411
414
421
427
428
429
431
433
434
435
436
441
446
450
451
452
453
454
455
456
461
462
468
470
472
473
475
476
477
478
479
480
482
485
529
530
532
535
536
537
538
540
543
544
547
549
550
551
552
553
558
559
560
562
563
584
601
604
605
606
607
608
610
611
612
614
615
616
617
634
635
637
639
641
642
643
644
645
646
648
649
650
652
663
664
665
667
669
678
680
686
687
692
699
701
704
705
708
712
718
720
723
728
730
731
732
735
737
744
745
747
748
750
751
754
755
756
757
764
767
769
773
780
784
785
792
797
799
801
803
806
808
809
810
813
815
819
821
822
824
828
831
842
848
850
854
858
859
864
866
867
868
875
878
881
883
891
942
949
950
956
957
959
968
971
978
982
983
990
991
993
995
996
999
1001
1003
1005
1006
1010
)


423
(
33
34
35
36
37
38
39
40
41
42
43
44
45
46
47
49
50
51
52
53
54
55
56
57
58
59
60
61
62
63
64
65
66
67
68
69
70
71
72
73
74
75
76
77
78
79
80
81
82
83
84
85
86
87
88
89
90
91
111
116
117
126
140
142
143
144
147
148
149
150
151
152
153
154
156
157
158
159
160
162
163
164
165
167
168
169
171
172
173
174
175
176
177
178
181
182
185
186
188
190
192
193
197
198
200
201
202
203
204
206
207
208
210
212
213
216
217
218
219
220
222
223
224
225
228
229
231
232
234
236
237
238
239
240
241
243
244
246
265
267
268
269
271
272
273
274
275
276
278
300
302
303
304
305
306
307
308
309
311
312
313
336
337
338
339
340
341
342
343
344
345
347
348
349
350
351
352
354
374
375
377
379
380
381
382
383
385
386
387
388
390
391
392
394
409
410
412
413
414
415
416
417
418
419
420
421
422
425
426
437
438
439
441
443
444
445
446
447
448
449
467
469
471
490
491
492
493
494
498
499
501
502
504
505
507
510
511
512
513
515
517
518
520
521
522
524
525
529
563
566
567
568
569
570
571
575
577
578
581
584
585
586
587
588
589
590
591
593
594
596
597
598
601
603
605
611
620
621
622
623
624
625
626
627
628
630
631
632
633
635
649
650
652
653
654
655
656
658
659
660
662
665
668
671
672
674
675
676
677
685
688
690
692
697
700
701
702
703
706
707
708
709
712
714
715
720
723
725
728
730
731
733
736
739
740
741
742
743
744
747
748
750
751
752
758
760
761
762
763
766
768
769
770
772
773
781
783
788
791
793
794
802
804
810
813
814
816
818
821
825
830
832
840
842
844
845
850
853
855
861
862
880
887
890
891
892
895
896
898
899
900
901
902
903
904
905
907
908
909
910
911
912
913
916
919
920
921
922
923
929
931
934
935
936
937
939
941
942
946
950
958
978
982
)


385
(
33
34
35
36
37
39
40
41
42
44
45
46
48
49
50
51
52
53
54
55
56
57
58
59
60
61
62
64
65
66
67
68
69
70
71
72
73
74
75
76
77
78
79
80
81
82
83
84
85
86
87
88
89
90
91
96
111
116
140
141
143
144
147
148
149
150
151
152
153
154
156
157
159
160
162
163
164
165
167
168
169
171
172
174