/*--------------------------------*- C++ -*----------------------------------*\
| =========                 |                                                 |
| \\      /  F ield         | OpenFOAM: The Open Source CFD Toolbox           |
|  \\    /   O peration     | Version:  2.2.x                                 |
|   \\  /    A nd           | Web:      www.OpenFOAM.org                      |
|    \\/     M anipulation  |                                                 |
\*---------------------------------------------------------------------------*/
FoamFile
{
    version     2.0;
    format      ascii;
    class       featureEdgeMesh;
    location    "constant/triSurface";
    object      back_left.eMesh;
}
// * * * * * * * * * * * * * * * * * * * * * * * * * * * * * * * * * * * * * //


// points:

129
(
(1.79993 3.52736 1.41806)
(1.79848 3.53249 1.07532)
(1.8 3.60701 1.37851)
(1.86678 3.57 1.4208)
(1.8581 3.56457 1.42684)
(1.94219 3.57911 1.3871)
(1.87708 3.5738 1.41561)
(1.87705 3.57381 1.41562)
(1.87691 3.57379 1.41569)
(1.88855 3.59229 1.40013)
(1.8669 3.57003 1.42074)
(1.8 3.58414 1.42485)
(1.8 3.62003 1.32917)
(1.94219 3.56559 1.3943)
(1.94219 3.55032 1.39686)
(1.89878 3.57779 1.40669)
(1.88776 3.57632 1.41112)
(1.87713 3.57375 1.4156)
(1.87702 3.57381 1.41564)
(1.86464 3.56873 1.42212)
(1.86348 3.56815 1.42285)
(1.8658 3.56936 1.4214)
(1.85753 3.54594 1.4244)
(1.86127 3.56682 1.42437)
(1.86232 3.56753 1.42363)
(1.86075 3.56644 1.42475)
(1.86022 3.56609 1.42514)
(1.8597 3.56574 1.42554)
(1.85918 3.56537 1.42595)
(1.85868 3.565 1.42635)
(1.8602 3.56612 1.42516)
(1.86461 3.56881 1.42213)
(1.86234 3.56752 1.42362)
(1.86698 3.56997 1.4207)
(1.90707 3.5424 1.07739)
(1.90689 3.5423 1.07653)
(1.90764 3.5427 1.08013)
(1.9081 3.54294 1.08234)
(1.80021 3.62018 1.25488)
(1.80031 3.61085 1.18153)
(1.80093 3.59536 1.07937)
(1.86236 3.5675 1.4236)
(1.89468 3.53681 1.40105)
(1.94219 3.53506 1.39432)
(1.851 3.53049 1.41958)
(1.93126 3.56097 1.2076)
(1.93433 3.55724 1.23931)
(1.90658 3.54226 1.07753)
(1.9067 3.54226 1.07837)
(1.90679 3.54229 1.07753)
(1.92389 3.53889 1.22926)
(1.91432 3.54078 1.1435)
(1.92387 3.53882 1.2295)
(1.91436 3.54088 1.14328)
(1.90743 3.54232 1.0808)
(1.86463 3.56876 1.42212)
(1.91035 3.54413 1.09313)
(1.91742 3.54786 1.127)
(1.92778 3.55332 1.17661)
(1.89874 3.57808 1.40657)
(1.90297 3.58694 1.39983)
(1.86688 3.57003 1.42075)
(1.94219 3.57278 1.39116)
(1.94219 3.57607 1.38923)
(1.89835 3.55163 1.40686)
(1.87717 3.54973 1.41401)
(1.94219 3.57879 1.38734)
(1.94219 3.57849 1.38757)
(1.94219 3.57761 1.3882)
(1.86696 3.57001 1.42071)
(1.81553 3.61475 1.17589)
(1.83146 3.61611 1.17116)
(1.90644 3.58608 1.16448)
(1.9176 3.57386 1.16681)
(1.89347 3.59656 1.16337)
(1.8771 3.57379 1.41561)
(1.94219 3.54258 1.39622)
(1.93178 3.55436 0.0916016)
(1.93161 3.55431 0.0916016)
(1.93165 3.54566 0.0916016)
(1.93182 3.54692 0.0916016)
(1.90663 3.54228 1.07738)
(1.90673 3.54228 1.07753)
(1.90686 3.54228 1.07753)
(1.90705 3.54243 1.07739)
(1.90708 3.5424 1.07759)
(1.90244 3.5403 1.19481)
(1.90677 3.54223 1.08011)
(1.90912 3.54197 1.09598)
(1.91195 3.53993 1.2186)
(1.908 3.54221 1.08591)
(1.87714 3.57373 1.4156)
(1.86464 3.56863 1.42212)
(1.86522 3.56891 1.42177)
(1.86349 3.56812 1.42285)
(1.86407 3.56834 1.42248)
(1.87715 3.5736 1.41561)
(1.87715 3.57367 1.4156)
(1.867 3.56986 1.4207)
(1.91441 3.54087 1.14373)
(1.87198 3.58601 1.40965)
(1.87986 3.58977 1.4046)
(1.94219 3.59823 1.35464)
(1.94219 3.59586 1.36408)
(1.94219 3.59878 1.34498)
(1.94219 3.59452 1.32627)
(1.94219 3.59754 1.33544)
(1.94219 3.58976 1.31776)
(1.88018 3.60302 1.38526)
(1.89595 3.60583 1.37827)
(1.94219 3.58617 1.38055)
(1.94219 3.59179 1.37281)
(1.8 3.59622 1.40193)
(1.83034 3.57734 1.42621)
(1.85864 3.55997 1.42641)
(1.90056 3.56128 1.07684)
(1.90412 3.55193 1.07758)
(1.85602 3.5939 1.08025)
(1.88072 3.58106 1.07905)
(1.82879 3.59882 1.08037)
(1.86581 3.56931 1.4214)
(1.87193 3.5346 1.40854)
(1.89682 3.5439 1.40464)
(1.91829 3.53695 1.39655)
(1.85488 3.53781 1.42243)
(1.94219 3.57227 1.30228)
(1.94219 3.58192 1.30894)
(1.94219 3.5615 1.2982)
(1.8 3.59621 1.40038)
)


// edges:

181
(
(91 17)
(16 6)
(23 4)
(28 4)
(29 4)
(30 23)
(92 93)
(94 19)
(95 92)
(96 97)
(93 98)
(0 11)
(1 0)
(40 1)
(0 44)
(35 47)
(1 35)
(50 99)
(99 53)
(54 37)
(43 46)
(18 8)
(7 18)
(3 4)
(100 101)
(102 103)
(104 102)
(105 106)
(107 105)
(108 109)
(110 5)
(103 111)
(106 104)
(111 110)
(11 112)
(113 11)
(4 113)
(112 2)
(2 12)
(9 101)
(13 14)
(15 16)
(5 15)
(20 19)
(25 4)
(33 21)
(22 114)
(115 116)
(34 36)
(116 35)
(38 39)
(39 40)
(117 118)
(118 115)
(119 117)
(40 119)
(114 4)
(19 120)
(20 94)
(41 25)
(98 96)
(97 91)
(120 95)
(42 121)
(122 43)
(43 123)
(44 124)
(121 44)
(124 22)
(123 42)
(45 46)
(125 126)
(127 125)
(126 107)
(46 127)
(11 128)
(128 2)
(51 52)
(45 43)
(5 59)
(7 60)
(59 6)
(10 61)
(61 9)
(60 8)
(9 3)
(62 13)
(16 5)
(63 62)
(17 15)
(64 65)
(10 16)
(15 6)
(66 67)
(67 68)
(5 66)
(68 63)
(21 55)
(24 26)
(27 30)
(69 31)
(31 32)
(4 69)
(27 29)
(65 22)
(30 24)
(3 32)
(20 31)
(31 33)
(70 71)
(39 70)
(72 73)
(74 72)
(71 39)
(73 74)
(41 20)
(23 41)
(75 10)
(6 75)
(17 33)
(76 43)
(22 64)
(14 76)
(77 78)
(78 79)
(79 80)
(80 77)
(14 43)
(5 13)
(35 81)
(81 47)
(82 49)
(49 48)
(49 35)
(35 83)
(83 49)
(84 45)
(35 84)
(85 34)
(35 85)
(52 50)
(53 51)
(36 54)
(86 48)
(48 87)
(53 88)
(42 86)
(87 89)
(88 90)
(43 50)
(47 82)
(48 42)
(89 35)
(35 51)
(52 43)
(90 54)
(6 7)
(8 10)
(10 6)
(6 8)
(6 18)
(19 55)
(19 21)
(24 23)
(4 24)
(23 25)
(25 26)
(26 27)
(27 28)
(28 29)
(26 23)
(4 32)
(35 34)
(36 37)
(37 56)
(56 57)
(57 58)
(12 38)
(58 45)
(40 12)
(38 40)
)

// * * * * * * * * * * * * * * * * * * * * * * * * * * * * * * * * * * * * * //


// ************************************************************************* //
