/*--------------------------------*- C++ -*----------------------------------*\
| =========                 |                                                 |
| \\      /  F ield         | OpenFOAM: The Open Source CFD Toolbox           |
|  \\    /   O peration     | Version:  2.2.x                                 |
|   \\  /    A nd           | Web:      www.OpenFOAM.org                      |
|    \\/     M anipulation  |                                                 |
\*---------------------------------------------------------------------------*/
FoamFile
{
    version     2.0;
    format      ascii;
    class       featureEdgeMesh;
    location    "constant/triSurface";
    object      back_right.eMesh;
}
// * * * * * * * * * * * * * * * * * * * * * * * * * * * * * * * * * * * * * //


// points:

116
(
(1.65781 3.58977 1.31777)
(1.67943 3.57947 1.39728)
(1.72807 3.5346 1.40854)
(1.73533 3.53998 1.41672)
(1.74246 3.54594 1.42435)
(1.73322 3.57 1.4208)
(1.65781 3.57911 1.3871)
(1.7419 3.56457 1.42684)
(1.8 3.58414 1.42485)
(1.80021 3.62018 1.25488)
(1.80031 3.61085 1.18153)
(1.70122 3.57779 1.40669)
(1.74137 3.56001 1.42642)
(1.74172 3.56344 1.42675)
(1.74181 3.56401 1.42679)
(1.73308 3.57003 1.42073)
(1.65781 3.53512 1.39434)
(1.69588 3.55193 1.07758)
(1.77278 3.5991 1.08039)
(1.69311 3.5423 1.07753)
(1.80093 3.59536 1.07937)
(1.67273 3.53095 1.18663)
(1.69006 3.52267 1.0741)
(1.68997 3.5227 1.07468)
(1.79993 3.52736 1.41806)
(1.65781 3.53515 1.39411)
(1.69014 3.52271 1.07468)
(1.69001 3.5227 1.07468)
(1.69009 3.5227 1.07468)
(1.65782 3.53511 1.3941)
(1.69011 3.52272 1.07501)
(1.69014 3.5227 1.07473)
(1.66762 3.53133 1.29686)
(1.79848 3.53249 1.07532)
(1.69045 3.52284 1.07681)
(1.69022 3.52273 1.07541)
(1.69031 3.52277 1.07595)
(1.787 3.5983 1.08002)
(1.67222 3.55332 1.17661)
(1.69 3.5227 1.07477)
(1.67667 3.58138 1.20439)
(1.67395 3.5859 1.24241)
(1.6824 3.57386 1.16681)
(1.758 3.51679 1.41274)
(1.72287 3.57375 1.4156)
(1.7229 3.57379 1.41561)
(1.7377 3.56753 1.42364)
(1.74188 3.56448 1.42683)
(1.733 3.56986 1.4207)
(1.73301 3.56992 1.4207)
(1.74189 3.56453 1.42683)
(1.73302 3.56997 1.4207)
(1.74188 3.56444 1.42683)
(1.74186 3.56437 1.42682)
(1.72283 3.54973 1.41401)
(1.74158 3.56231 1.42665)
(1.70165 3.55163 1.40686)
(1.74185 3.5643 1.42682)
(1.74183 3.56415 1.4268)
(1.7418 3.56396 1.42679)
(1.7331 3.57003 1.42074)
(1.72292 3.5738 1.41561)
(1.69447 3.54704 1.07756)
(1.69546 3.55047 1.07757)
(1.6717 3.54209 1.18184)
(1.93178 3.55436 0.0916016)
(1.93161 3.55431 0.0916016)
(1.93165 3.54566 0.0916016)
(1.93182 3.54692 0.0916016)
(1.74193 3.56455 1.42683)
(1.65781 3.53503 1.39407)
(1.67881 3.52701 1.18582)
(1.7416 3.56229 1.42664)
(1.69045 3.52269 1.0753)
(1.73312 3.57003 1.42075)
(1.67943 3.57921 1.39743)
(1.70122 3.57751 1.40678)
(1.71486 3.52373 1.15173)
(1.69195 3.52275 1.08002)
(1.66866 3.58852 1.28046)
(1.65781 3.58196 1.30897)
(1.65781 3.57246 1.30237)
(1.65781 3.56177 1.29827)
(1.65781 3.55032 1.29686)
(1.66556 3.54636 1.24091)
(1.70532 3.53681 1.40105)
(1.71145 3.59229 1.40013)
(1.72014 3.58977 1.4046)
(1.65781 3.58605 1.38068)
(1.65781 3.59449 1.3262)
(1.65781 3.59824 1.35455)
(1.65781 3.59878 1.34486)
(1.65781 3.59584 1.36413)
(1.65781 3.59751 1.33531)
(1.76967 3.57734 1.42621)
(1.71982 3.60302 1.38526)
(1.70405 3.60583 1.37827)
(1.65781 3.59169 1.37296)
(1.8 3.62003 1.32917)
(1.8 3.60701 1.37851)
(1.72802 3.58601 1.40965)
(1.72309 3.57379 1.41569)
(1.65781 3.55032 1.39686)
(1.65781 3.56569 1.39429)
(1.66859 3.57943 1.39237)
(1.74127 3.55527 1.42587)
(1.69034 3.5783 1.4023)
(1.65781 3.5408 1.39528)
(1.69944 3.56128 1.07684)
(1.71962 3.58128 1.07907)
(1.75849 3.59772 1.08048)
(1.74468 3.59421 1.08028)
(1.69649 3.52295 1.09422)
(1.71757 3.53489 1.25808)
(1.70063 3.52736 1.14483)
(1.69289 3.52393 1.09314)
)


// edges:

154
(
(5 74)
(11 6)
(75 76)
(23 26)
(30 26)
(2 31)
(32 21)
(33 20)
(8 24)
(4 24)
(77 78)
(34 35)
(79 0)
(0 80)
(80 81)
(81 82)
(82 83)
(83 84)
(2 85)
(3 2)
(86 87)
(6 88)
(89 0)
(90 91)
(92 90)
(91 93)
(93 89)
(8 94)
(95 96)
(88 97)
(98 99)
(100 87)
(97 92)
(5 101)
(10 9)
(9 98)
(94 7)
(102 103)
(6 104)
(103 6)
(12 105)
(1 11)
(1 104)
(6 1)
(106 75)
(76 106)
(14 13)
(105 4)
(107 102)
(16 107)
(85 16)
(17 108)
(108 109)
(110 18)
(109 111)
(111 110)
(84 21)
(22 19)
(30 31)
(99 8)
(77 112)
(112 78)
(113 114)
(114 115)
(115 34)
(34 36)
(113 4)
(40 41)
(42 40)
(43 3)
(4 43)
(41 42)
(11 44)
(45 11)
(7 46)
(46 5)
(47 48)
(49 47)
(50 49)
(51 50)
(52 53)
(4 54)
(13 55)
(48 52)
(55 12)
(54 56)
(53 57)
(58 14)
(57 58)
(14 59)
(59 13)
(7 15)
(15 60)
(60 61)
(44 51)
(15 45)
(61 15)
(56 4)
(19 62)
(62 63)
(63 17)
(20 10)
(21 64)
(64 38)
(21 23)
(65 66)
(66 67)
(67 68)
(68 65)
(7 69)
(24 10)
(16 70)
(70 29)
(28 30)
(31 26)
(31 3)
(71 32)
(21 30)
(30 71)
(24 22)
(29 30)
(20 9)
(69 24)
(72 12)
(24 13)
(13 72)
(18 20)
(19 17)
(73 26)
(35 73)
(36 35)
(3 36)
(3 4)
(7 5)
(18 37)
(37 20)
(21 38)
(23 22)
(9 24)
(25 16)
(26 22)
(27 26)
(23 27)
(27 28)
(28 26)
(16 29)
(29 25)
(22 27)
(39 27)
(23 39)
(28 22)
(32 25)
(22 33)
(33 24)
)

// * * * * * * * * * * * * * * * * * * * * * * * * * * * * * * * * * * * * * //


// ************************************************************************* //
