/*--------------------------------*- C++ -*----------------------------------*\
| =========                 |                                                 |
| \\      /  F ield         | OpenFOAM: The Open Source CFD Toolbox           |
|  \\    /   O peration     | Version:  2.2.x                                 |
|   \\  /    A nd           | Web:      www.OpenFOAM.org                      |
|    \\/     M anipulation  |                                                 |
\*---------------------------------------------------------------------------*/
FoamFile
{
    version     2.0;
    format      ascii;
    class       featureEdgeMesh;
    location    "constant/triSurface";
    object      bed.eMesh;
}
// * * * * * * * * * * * * * * * * * * * * * * * * * * * * * * * * * * * * * //


// points:

32
(
(2.299 3.67 -0.2)
(2.299 3.67 1.7)
(2.299 4.02 -0.2)
(2.299 4.02 -0.1)
(2.299 3.87 1.6)
(2.299 4.02 1.7)
(2.299 4.02 1.6)
(1.399 4.02 -0.2)
(1.299 4.02 -0.2)
(1.299 3.67 -0.2)
(2.199 4.02 -0.2)
(1.299 3.67 1.7)
(1.299 3.87 1.6)
(1.299 4.02 1.7)
(1.299 4.02 1.6)
(1.299 4.02 -0.1)
(2.199 4.02 1.7)
(1.399 4.02 1.7)
(2.199 4.02 1.6)
(1.399 4.02 1.6)
(2.199 4.02 -0.1)
(1.399 4.02 -0.1)
(2.299 3.87 -0.1)
(1.399 3.87 -0.2)
(2.199 3.87 -0.2)
(1.299 3.87 -0.1)
(1.399 3.87 1.7)
(2.199 3.87 1.7)
(2.199 3.87 1.6)
(1.399 3.87 1.6)
(1.399 3.87 -0.1)
(2.199 3.87 -0.1)
)


// edges:

51
(
(1 0)
(0 2)
(2 3)
(3 22)
(5 1)
(22 4)
(6 5)
(4 6)
(8 7)
(7 23)
(0 9)
(9 8)
(23 24)
(24 10)
(10 2)
(9 11)
(11 13)
(13 14)
(14 12)
(12 25)
(15 8)
(25 15)
(11 1)
(27 26)
(16 27)
(5 16)
(17 13)
(26 17)
(6 18)
(18 16)
(28 18)
(19 14)
(17 19)
(29 19)
(10 20)
(20 3)
(31 20)
(15 21)
(21 7)
(30 21)
(28 29)
(12 4)
(29 4)
(12 29)
(28 4)
(29 26)
(27 28)
(30 25)
(22 31)
(23 30)
(31 24)
)

// * * * * * * * * * * * * * * * * * * * * * * * * * * * * * * * * * * * * * //


// ************************************************************************* //
