/*--------------------------------*- C++ -*----------------------------------*\
| =========                 |                                                 |
| \\      /  F ield         | OpenFOAM: The Open Source CFD Toolbox           |
|  \\    /   O peration     | Version:  2.2.x                                 |
|   \\  /    A nd           | Web:      www.OpenFOAM.org                      |
|    \\/     M anipulation  |                                                 |
\*---------------------------------------------------------------------------*/
FoamFile
{
    version     2.0;
    format      ascii;
    class       featureEdgeMesh;
    location    "constant/triSurface";
    object      chest_right.eMesh;
}
// * * * * * * * * * * * * * * * * * * * * * * * * * * * * * * * * * * * * * //


// points:

316
(
(1.68917 3.46953 1.204)
(1.68933 3.46935 1.20357)
(1.68413 3.48125 1.26842)
(1.72864 3.4404 1.17739)
(1.75862 3.49125 1.37951)
(1.76581 3.49355 1.39266)
(1.69542 3.48235 1.33077)
(1.7366 3.46978 1.33459)
(1.67928 3.49494 1.29927)
(1.65781 3.50413 1.33162)
(1.68616 3.48737 1.26003)
(1.8 3.45921 1.31982)
(1.8 3.44237 1.27906)
(1.8 3.46004 1.32184)
(1.73533 3.53998 1.41672)
(1.72807 3.5346 1.40854)
(1.758 3.51679 1.41274)
(1.65781 3.51105 1.31752)
(1.65781 3.53502 1.29941)
(1.65781 3.55032 1.29686)
(1.68769 3.47042 1.20654)
(1.65781 3.50415 1.33157)
(1.8 3.46011 1.32197)
(1.8 3.46018 1.3221)
(1.79994 3.46926 1.34293)
(1.8 3.46035 1.32243)
(1.8 3.46211 1.32647)
(1.8 3.46387 1.33052)
(1.8 3.47841 1.36384)
(1.79953 3.47701 1.35907)
(1.7702 3.48167 1.36777)
(1.76958 3.4685 1.34044)
(1.78083 3.47972 1.36651)
(1.65781 3.53512 1.39434)
(1.6959 3.45944 1.19251)
(1.69595 3.45945 1.19245)
(1.72858 3.44032 1.17744)
(1.72846 3.44015 1.17753)
(1.70983 3.45109 1.18398)
(1.69561 3.45978 1.19276)
(1.6906 3.46532 1.19943)
(1.69075 3.46506 1.19907)
(1.74276 3.43552 1.17756)
(1.73327 3.43863 1.17717)
(1.72521 3.44206 1.17785)
(1.70674 3.42431 1.26706)
(1.73736 3.43644 1.17832)
(1.73692 3.42444 1.17711)
(1.6881 3.44843 1.26197)
(1.69091 3.46631 1.19982)
(1.69536 3.45932 1.19324)
(1.69566 3.4594 1.19283)
(1.69582 3.45943 1.19261)
(1.73278 3.4384 1.17853)
(1.7719 3.4294 1.18335)
(1.74277 3.43553 1.17755)
(1.8 3.43806 1.25825)
(1.80037 3.43273 1.19897)
(1.80041 3.43256 1.19611)
(1.80005 3.43561 1.23714)
(1.80045 3.4324 1.19325)
(1.68997 3.5227 1.07468)
(1.69006 3.52267 1.0741)
(1.70304 3.46462 1.06558)
(1.69245 3.49302 1.06823)
(1.73593 3.43786 1.17722)
(1.80093 3.4234 1.06752)
(1.65781 3.50311 1.33539)
(1.65781 3.50386 1.33252)
(1.65781 3.50239 1.33924)
(1.73672 3.47015 1.33521)
(1.8 3.48227 1.41066)
(1.75712 3.51267 1.40756)
(1.78617 3.48512 1.40706)
(1.75596 3.50481 1.39726)
(1.76478 3.50428 1.40848)
(1.77935 3.4876 1.40586)
(1.69007 3.52268 1.07506)
(1.79848 3.53249 1.07532)
(1.8 3.46 1.32163)
(1.8 3.45992 1.32112)
(1.8 3.46006 1.32178)
(1.65781 3.53498 1.39406)
(1.65781 3.51604 1.3115)
(1.65781 3.52326 1.30537)
(1.65781 3.53389 1.30001)
(1.65781 3.53152 1.30077)
(1.65781 3.53515 1.39411)
(1.65781 3.5111 1.31767)
(1.80001 3.43985 1.26342)
(1.8 3.45987 1.32133)
(1.8 3.45995 1.32153)
(1.8 3.4599 1.32119)
(1.8 3.45988 1.32128)
(1.8 3.4641 1.32968)
(1.8 3.46528 1.33196)
(1.8 3.46223 1.32606)
(1.8 3.46265 1.32688)
(1.8 3.46068 1.32307)
(1.8 3.46133 1.32434)
(1.79993 3.52736 1.41806)
(1.8 3.46002 1.32168)
(1.8 3.47032 1.34223)
(1.74193 3.56455 1.42683)
(1.74189 3.56453 1.42683)
(1.7419 3.56457 1.42684)
(1.67144 3.50028 1.31713)
(1.76908 3.46361 1.33167)
(1.68504 3.48934 1.27193)
(1.65781 3.52164 1.30655)
(1.68136 3.49196 1.28863)
(1.67761 3.49666 1.30485)
(1.67982 3.49418 1.29682)
(1.66976 3.50096 1.31954)
(1.6856 3.47792 1.22145)
(1.68039 3.49283 1.29272)
(1.68581 3.48297 1.23778)
(1.7339 3.4386 1.17722)
(1.68574 3.47681 1.21872)
(1.80018 3.43386 1.21587)
(1.80024 3.43347 1.21036)
(1.80007 3.43514 1.23184)
(1.8001 3.4347 1.22655)
(1.8003 3.43309 1.2047)
(1.69286 3.49193 1.06813)
(1.76842 3.42969 1.18239)
(1.72799 3.44084 1.17747)
(1.78473 3.42953 1.18731)
(1.69038 3.46559 1.19975)
(1.72085 3.44486 1.1795)
(1.72426 3.44266 1.17817)
(1.69452 3.46075 1.19387)
(1.70686 3.45266 1.18536)
(1.71573 3.47517 1.33299)
(1.67592 3.49203 1.33014)
(1.74052 3.48194 1.35477)
(1.73853 3.47584 1.34468)
(1.73684 3.47053 1.33584)
(1.73757 3.4728 1.33962)
(1.7451 3.49387 1.37449)
(1.73708 3.47129 1.3371)
(1.79308 3.48357 1.40893)
(1.78494 3.46148 1.32754)
(1.77711 3.46246 1.32981)
(1.7827 3.4861 1.40631)
(1.93178 3.55436 0.0916016)
(1.93161 3.55431 0.0916016)
(1.93165 3.54566 0.0916016)
(1.93182 3.54692 0.0916016)
(1.65781 3.50271 1.33753)
(1.65781 3.50252 1.33948)
(1.65781 3.50293 1.33638)
(1.65781 3.53503 1.39407)
(1.65781 3.51077 1.31809)
(1.65781 3.50556 1.3276)
(1.65781 3.51007 1.31897)
(1.65781 3.50275 1.33712)
(1.65781 3.5349 1.39403)
(1.65781 3.51954 1.36281)
(1.65781 3.53502 1.29965)
(1.65781 3.53486 1.39353)
(1.69001 3.5227 1.07468)
(1.69009 3.5227 1.07468)
(1.69014 3.52271 1.07468)
(1.74158 3.56231 1.42665)
(1.74137 3.56001 1.42642)
(1.7416 3.56229 1.42664)
(1.74172 3.56344 1.42675)
(1.74246 3.54594 1.42435)
(1.68639 3.4846 1.31241)
(1.6984 3.47116 1.31173)
(1.68623 3.48044 1.30245)
(1.73127 3.45736 1.31658)
(1.7984 3.46125 1.32477)
(1.7846 3.47951 1.36621)
(1.79225 3.47912 1.36537)
(1.79863 3.47351 1.34998)
(1.79907 3.47536 1.35445)
(1.69089 3.46497 1.19892)
(1.72614 3.44084 1.17749)
(1.72632 3.44117 1.17758)
(1.68475 3.47464 1.27656)
(1.68928 3.46842 1.20284)
(1.68847 3.46967 1.20483)
(1.71626 3.44546 1.18118)
(1.70968 3.45112 1.18409)
(1.72445 3.44246 1.17816)
(1.7254 3.44188 1.17786)
(1.70795 3.45193 1.29729)
(1.69314 3.46173 1.28999)
(1.68864 3.46955 1.20495)
(1.68893 3.46959 1.20447)
(1.73131 3.41469 1.17989)
(1.68926 3.46946 1.20378)
(1.68937 3.4692 1.20337)
(1.73708 3.43604 1.17853)
(1.69429 3.45895 1.19489)
(1.70787 3.44878 1.18488)
(1.6948 3.45915 1.19406)
(1.70832 3.44935 1.18461)
(1.72188 3.43235 1.1781)
(1.72508 3.43663 1.17753)
(1.69095 3.46613 1.19962)
(1.70925 3.45055 1.18421)
(1.70949 3.45088 1.18413)
(1.70962 3.45104 1.1841)
(1.69097 3.46558 1.19922)
(1.69521 3.45928 1.19345)
(1.69084 3.46642 1.20003)
(1.69093 3.4652 1.19902)
(1.69507 3.45924 1.19365)
(1.70878 3.44994 1.18439)
(1.73013 3.43863 1.1785)
(1.73484 3.43721 1.17881)
(1.72765 3.43887 1.17789)
(1.72793 3.43934 1.17781)
(1.73253 3.43808 1.1788)
(1.7329 3.43852 1.17836)
(1.72807 3.43956 1.17775)
(1.73317 3.43867 1.17764)
(1.733 3.43861 1.17815)
(1.72821 3.43977 1.17769)
(1.73324 3.43865 1.17733)
(1.77024 3.42437 1.18672)
(1.77137 3.4268 1.18493)
(1.78578 3.42939 1.18825)
(1.78501 3.46152 1.32759)
(1.77713 3.48012 1.36684)
(1.76912 3.46375 1.3319)
(1.79753 3.48015 1.36999)
(1.79816 3.46049 1.32323)
(1.78493 3.4618 1.32813)
(1.75103 3.46791 1.33609)
(1.74896 3.46815 1.33595)
(1.79907 3.47586 1.3558)
(1.79627 3.47045 1.34379)
(1.67724 3.50049 1.19727)
(1.68345 3.48398 1.28571)
(1.70001 3.45638 1.29441)
(1.69125 3.47483 1.30613)
(1.75793 3.51683 1.41273)
(1.66556 3.54636 1.24091)
(1.67273 3.53095 1.18663)
(1.79829 3.46133 1.32498)
(1.70532 3.53681 1.40105)
(1.65781 3.52153 1.3871)
(1.7264 3.44134 1.17762)
(1.7258 3.44168 1.17776)
(1.68808 3.46943 1.20596)
(1.68855 3.46766 1.20456)
(1.72153 3.39991 1.1928)
(1.72609 3.4064 1.18529)
(1.71256 3.39704 1.23106)
(1.7135 3.3939 1.22136)
(1.71526 3.39344 1.21131)
(1.73238 3.42683 1.17737)
(1.72937 3.42652 1.17742)
(1.73796 3.43694 1.17721)
(1.71791 3.3955 1.20167)
(1.71745 3.41253 1.18612)
(1.71306 3.40662 1.19372)
(1.70956 3.40261 1.20261)
(1.70694 3.40072 1.2122)
(1.706 3.42485 1.26703)
(1.70417 3.40419 1.23181)
(1.69846 3.43171 1.26606)
(1.70515 3.4012 1.22217)
(1.69261 3.43975 1.26451)
(1.68503 3.4577 1.25856)
(1.70698 3.4477 1.18552)
(1.72443 3.43661 1.17729)
(1.72637 3.44004 1.17737)
(1.75621 3.4272 1.18017)
(1.76748 3.41998 1.19096)
(1.80043 3.43248 1.19468)
(1.80044 3.43244 1.19397)
(1.78586 3.42951 1.18798)
(1.80088 3.42713 1.13045)
(1.78716 3.42328 1.06853)
(1.71281 3.45446 1.06708)
(1.70777 3.45939 1.06637)
(1.74735 3.43231 1.06941)
(1.74115 3.43512 1.06924)
(1.77353 3.42476 1.06918)
(1.73509 3.43829 1.06899)
(1.72352 3.44568 1.06821)
(1.7381 3.43666 1.06913)
(1.65781 3.50359 1.33348)
(1.65781 3.504 1.33204)
(1.65781 3.51081 1.37587)
(1.65781 3.50407 1.3318)
(1.65781 3.50182 1.34685)
(1.65781 3.50182 1.34698)
(1.65781 3.50413 1.36211)
(1.8 3.48248 1.38701)
(1.76506 3.49684 1.39789)
(1.76471 3.50042 1.40317)
(1.79264 3.46072 1.32491)
(1.75676 3.50304 1.39582)
(1.75643 3.50867 1.4024)
(1.75277 3.46655 1.33427)
(1.76338 3.48167 1.36416)
(1.76024 3.49582 1.38915)
(1.79253 3.4832 1.38696)
(1.78878 3.46129 1.32669)
(1.74469 3.46817 1.33478)
(1.77353 3.49226 1.40613)
(1.77629 3.48971 1.40585)
(1.75575 3.50109 1.39216)
(1.75581 3.49751 1.38711)
(1.75677 3.49082 1.37719)
(1.75616 3.49409 1.38211)
(1.76689 3.49054 1.38749)
(1.65781 3.52057 1.30766)
(1.65781 3.51208 1.31645)
(1.65781 3.52228 1.30621)
)


// edges:

416
(
(169 8)
(170 171)
(172 7)
(24 25)
(173 29)
(29 28)
(174 175)
(176 177)
(177 29)
(15 16)
(35 178)
(179 37)
(36 180)
(181 10)
(182 41)
(43 42)
(20 183)
(184 185)
(186 187)
(188 189)
(190 191)
(192 45)
(183 0)
(0 193)
(1 194)
(193 1)
(191 0)
(45 10)
(190 20)
(42 46)
(46 195)
(48 45)
(196 197)
(198 199)
(200 201)
(49 50)
(202 51)
(203 50)
(49 1)
(51 204)
(52 205)
(34 185)
(206 52)
(207 208)
(209 34)
(210 211)
(53 212)
(46 213)
(212 214)
(53 215)
(213 216)
(217 218)
(219 37)
(220 221)
(222 36)
(223 57)
(58 224)
(225 54)
(65 55)
(226 13)
(28 32)
(227 28)
(7 228)
(175 28)
(28 229)
(230 231)
(232 74)
(233 72)
(30 75)
(31 16)
(234 235)
(29 234)
(77 236)
(101 79)
(87 19)
(14 19)
(66 78)
(71 100)
(100 78)
(313 314)
(314 83)
(83 313)
(85 315)
(315 84)
(86 85)
(237 2)
(2 10)
(238 189)
(181 2)
(188 238)
(13 11)
(239 171)
(240 15)
(15 14)
(16 240)
(14 16)
(19 18)
(17 21)
(21 9)
(241 19)
(242 241)
(24 23)
(28 173)
(243 29)
(32 174)
(227 32)
(33 244)
(244 15)
(245 33)
(34 35)
(178 34)
(36 179)
(3 180)
(3 246)
(38 184)
(246 247)
(39 35)
(35 38)
(248 249)
(3 43)
(41 35)
(250 251)
(251 192)
(45 252)
(252 253)
(253 254)
(255 256)
(42 257)
(254 258)
(257 43)
(258 250)
(20 248)
(46 47)
(259 260)
(261 262)
(263 45)
(45 264)
(263 265)
(266 264)
(260 261)
(265 267)
(267 48)
(48 10)
(48 268)
(262 266)
(247 44)
(269 196)
(200 270)
(197 198)
(50 202)
(199 210)
(51 206)
(50 211)
(204 52)
(52 51)
(205 34)
(34 52)
(52 209)
(207 49)
(203 51)
(216 46)
(214 53)
(271 37)
(217 215)
(221 219)
(218 220)
(37 222)
(43 36)
(272 54)
(225 224)
(12 56)
(58 223)
(57 273)
(58 274)
(274 275)
(276 60)
(54 276)
(275 60)
(61 242)
(236 62)
(277 66)
(66 278)
(279 280)
(281 282)
(60 277)
(280 63)
(278 283)
(284 285)
(283 281)
(282 286)
(286 284)
(285 279)
(287 67)
(288 68)
(289 245)
(290 288)
(9 290)
(69 291)
(291 292)
(68 287)
(293 289)
(292 293)
(71 294)
(295 296)
(297 226)
(4 31)
(298 4)
(74 299)
(300 228)
(301 4)
(75 302)
(16 75)
(28 303)
(294 28)
(28 235)
(231 304)
(305 300)
(297 13)
(230 304)
(306 307)
(307 76)
(75 306)
(74 308)
(308 309)
(310 311)
(311 309)
(72 299)
(233 74)
(70 72)
(16 72)
(30 312)
(75 296)
(5 312)
(30 5)
(301 31)
(298 16)
(5 295)
(64 77)
(78 13)
(93 59)
(19 15)
(8 106)
(9 6)
(6 7)
(106 9)
(10 8)
(107 13)
(108 10)
(18 109)
(110 108)
(111 112)
(113 111)
(114 20)
(115 110)
(10 116)
(9 113)
(112 115)
(109 17)
(116 114)
(23 22)
(25 23)
(38 39)
(41 40)
(40 20)
(42 117)
(44 38)
(39 41)
(47 42)
(118 10)
(20 118)
(117 44)
(54 55)
(55 47)
(57 58)
(119 120)
(121 122)
(120 123)
(123 57)
(59 121)
(122 119)
(60 54)
(62 61)
(63 124)
(124 64)
(55 125)
(126 65)
(127 60)
(20 128)
(129 130)
(40 131)
(128 40)
(65 42)
(42 55)
(130 126)
(132 129)
(131 132)
(125 127)
(7 133)
(134 9)
(67 69)
(133 6)
(135 136)
(6 134)
(137 70)
(136 138)
(16 139)
(140 137)
(138 140)
(139 135)
(141 71)
(13 142)
(143 107)
(142 143)
(144 73)
(73 141)
(76 144)
(70 16)
(145 146)
(146 147)
(147 148)
(148 145)
(77 62)
(78 81)
(149 69)
(150 149)
(67 151)
(151 68)
(33 82)
(82 152)
(152 33)
(153 21)
(21 154)
(154 155)
(155 153)
(156 150)
(68 156)
(157 82)
(82 158)
(33 157)
(18 159)
(88 17)
(158 160)
(160 88)
(83 88)
(88 87)
(84 83)
(159 86)
(59 58)
(87 33)
(161 61)
(162 161)
(163 162)
(78 163)
(76 73)
(73 71)
(24 78)
(25 78)
(164 165)
(165 166)
(167 164)
(166 167)
(168 14)
(100 168)
(77 78)
(63 64)
(11 12)
(22 13)
(26 25)
(27 26)
(24 28)
(28 27)
(56 59)
(79 80)
(13 101)
(81 13)
(84 85)
(84 86)
(56 89)
(89 59)
(12 89)
(12 90)
(90 89)
(11 90)
(91 90)
(79 91)
(92 93)
(92 91)
(91 93)
(80 92)
(80 91)
(14 78)
(22 81)
(90 93)
(78 71)
(28 78)
(28 94)
(94 27)
(28 95)
(95 94)
(28 102)
(102 95)
(27 96)
(96 26)
(27 97)
(97 96)
(94 97)
(26 98)
(98 25)
(26 99)
(99 98)
(96 99)
(71 14)
(100 14)
(103 104)
(104 105)
(105 103)
)

// * * * * * * * * * * * * * * * * * * * * * * * * * * * * * * * * * * * * * //


// ************************************************************************* //
