/*--------------------------------*- C++ -*----------------------------------*\
| =========                 |                                                 |
| \\      /  F ield         | OpenFOAM: The Open Source CFD Toolbox           |
|  \\    /   O peration     | Version:  2.2.x                                 |
|   \\  /    A nd           | Web:      www.OpenFOAM.org                      |
|    \\/     M anipulation  |                                                 |
\*---------------------------------------------------------------------------*/
FoamFile
{
    version     2.0;
    format      ascii;
    class       featureEdgeMesh;
    location    "constant/triSurface";
    object      chest_left.eMesh;
}
// * * * * * * * * * * * * * * * * * * * * * * * * * * * * * * * * * * * * * //


// points:

292
(
(1.91067 3.46935 1.20357)
(1.79993 3.52736 1.41806)
(1.82371 3.48971 1.40585)
(1.84288 3.51267 1.40756)
(1.86673 3.43863 1.17717)
(1.90994 3.52267 1.0751)
(1.92778 3.55332 1.17661)
(1.93126 3.56097 1.2076)
(1.94219 3.5615 1.2982)
(1.94225 3.50411 1.33175)
(1.94227 3.5041 1.3318)
(1.94219 3.50413 1.33162)
(1.94219 3.50358 1.33351)
(1.90458 3.48235 1.33077)
(1.94229 3.50405 1.33203)
(1.94231 3.50409 1.33191)
(1.94219 3.50238 1.33932)
(1.94219 3.5031 1.33544)
(1.94219 3.50423 1.36243)
(1.842 3.51679 1.41274)
(1.8634 3.46978 1.33459)
(1.8 3.46035 1.32243)
(1.8 3.46133 1.32434)
(1.8 3.48227 1.41066)
(1.8 3.46004 1.32184)
(1.8 3.46528 1.33196)
(1.81383 3.48512 1.40706)
(1.82065 3.4876 1.40586)
(1.82647 3.49226 1.40613)
(1.83522 3.50428 1.40848)
(1.8 3.46265 1.32688)
(1.84404 3.50481 1.39726)
(1.91587 3.48125 1.26842)
(1.92072 3.49494 1.29927)
(1.91217 3.46798 1.28391)
(1.91384 3.48737 1.26003)
(1.8 3.44237 1.27906)
(1.91276 3.47151 1.20828)
(1.91242 3.47069 1.20696)
(1.91231 3.47042 1.20654)
(1.90913 3.46485 1.19887)
(1.91296 3.47204 1.20916)
(1.87142 3.44032 1.17744)
(1.87154 3.44015 1.17753)
(1.90907 3.4652 1.19902)
(1.89027 3.45119 1.18407)
(1.90405 3.45945 1.19245)
(1.90909 3.46481 1.19885)
(1.90911 3.46497 1.19892)
(1.86664 3.43881 1.17722)
(1.87548 3.44259 1.17817)
(1.8574 3.43518 1.17748)
(1.85793 3.43415 1.1773)
(1.85829 3.43345 1.17719)
(1.85723 3.43553 1.17755)
(1.86264 3.43644 1.17832)
(1.86308 3.42444 1.17711)
(1.9133 3.47302 1.21087)
(1.91371 3.47436 1.21339)
(1.86869 3.41469 1.17989)
(1.90777 3.46261 1.28919)
(1.91253 3.46843 1.28346)
(1.90909 3.46631 1.19982)
(1.90464 3.45932 1.19324)
(1.90434 3.4594 1.19283)
(1.9041 3.45944 1.19251)
(1.90418 3.45943 1.19261)
(1.86722 3.4384 1.17853)
(1.82817 3.4295 1.18328)
(1.89696 3.46462 1.06558)
(1.80045 3.4324 1.19325)
(1.80005 3.43561 1.23714)
(1.89249 3.45928 1.06624)
(1.80093 3.4234 1.06752)
(1.8631 3.43608 1.06859)
(1.82799 3.42423 1.06877)
(1.85398 3.43168 1.06886)
(1.87734 3.44527 1.06779)
(1.94219 3.53506 1.39432)
(1.851 3.53049 1.41958)
(1.94219 3.50321 1.33563)
(1.94219 3.50366 1.33366)
(1.90689 3.5423 1.07753)
(1.90716 3.54059 1.07732)
(1.90756 3.54266 1.0807)
(1.90776 3.54277 1.08165)
(1.90708 3.5424 1.07766)
(1.92057 3.54974 1.16241)
(1.90689 3.5423 1.07653)
(1.90991 3.5229 1.07511)
(1.79848 3.53249 1.07532)
(1.90803 3.53716 1.0772)
(1.90707 3.5424 1.07739)
(1.90673 3.54228 1.07753)
(1.91005 3.52287 1.07575)
(1.94221 3.50412 1.33166)
(1.94219 3.50385 1.33255)
(1.94219 3.50182 1.34713)
(1.94219 3.50389 1.33263)
(1.90993 3.52268 1.07506)
(1.9081 3.54294 1.08234)
(1.92412 3.49208 1.33039)
(1.9422 3.50409 1.33175)
(1.94229 3.50413 1.33175)
(1.94226 3.50414 1.3317)
(1.9423 3.50412 1.3318)
(1.92408 3.49203 1.33014)
(1.94223 3.50414 1.33166)
(1.86328 3.47015 1.33521)
(1.86316 3.47053 1.33584)
(1.8549 3.49387 1.37449)
(1.88427 3.47517 1.33299)
(1.86292 3.47129 1.3371)
(1.86243 3.4728 1.33962)
(1.86147 3.47584 1.34468)
(1.85948 3.48194 1.35477)
(1.8 3.46018 1.3221)
(1.83092 3.46361 1.33167)
(1.82289 3.46246 1.32981)
(1.81506 3.46148 1.32754)
(1.8 3.46011 1.32197)
(1.81729 3.4861 1.40631)
(1.8 3.4641 1.32968)
(1.8 3.46223 1.32606)
(1.89205 3.45193 1.29729)
(1.87389 3.44535 1.29915)
(1.91525 3.47464 1.27656)
(1.9395 3.50337 1.32876)
(1.92856 3.50028 1.31713)
(1.90686 3.46173 1.28999)
(1.89999 3.45638 1.29441)
(1.8 3.45921 1.31982)
(1.9127 3.47137 1.20806)
(1.91265 3.47124 1.20784)
(1.91259 3.4711 1.20762)
(1.91254 3.47097 1.2074)
(1.91322 3.47279 1.21045)
(1.91314 3.47255 1.21003)
(1.87128 3.44056 1.17742)
(1.87453 3.44201 1.17787)
(1.87352 3.44147 1.17764)
(1.88412 3.44864 1.29868)
(1.85758 3.43484 1.17741)
(1.88287 3.44706 1.18093)
(1.85732 3.43536 1.17751)
(1.91438 3.48168 1.23271)
(1.9159 3.48124 1.26845)
(1.91449 3.47974 1.22636)
(1.91433 3.4774 1.22004)
(1.8638 3.42315 1.17729)
(1.8645 3.42189 1.17752)
(1.91345 3.47348 1.21171)
(1.86592 3.4194 1.17813)
(1.85865 3.43275 1.1771)
(1.85938 3.43134 1.17697)
(1.86012 3.42993 1.17689)
(1.89351 3.45272 1.29681)
(1.90129 3.4573 1.2937)
(1.91536 3.47467 1.27655)
(1.80001 3.43985 1.26342)
(1.81449 3.42297 1.06828)
(1.80088 3.42713 1.13045)
(1.86011 3.43452 1.0687)
(1.86606 3.43774 1.06847)
(1.84896 3.52737 1.41804)
(1.84913 3.52763 1.41816)
(1.9144 3.47792 1.22145)
(1.93024 3.50096 1.31954)
(1.92239 3.49666 1.30485)
(1.91864 3.49196 1.28863)
(1.91961 3.49283 1.29272)
(1.91496 3.48934 1.27193)
(1.91419 3.48297 1.23778)
(1.92018 3.49418 1.29682)
(1.80044 3.43244 1.19397)
(1.80043 3.43248 1.19468)
(1.80041 3.43256 1.19611)
(1.93178 3.55436 0.0916016)
(1.93161 3.55431 0.0916016)
(1.93165 3.54566 0.0916016)
(1.93182 3.54692 0.0916016)
(1.94223 3.50412 1.3317)
(1.90705 3.54243 1.07739)
(1.90675 3.54227 1.07738)
(1.90984 3.52337 1.07517)
(1.90978 3.52474 1.07547)
(1.90658 3.54226 1.07753)
(1.90286 3.53779 1.07716)
(1.90686 3.54228 1.07753)
(1.90679 3.54229 1.07753)
(1.82443 3.50537 1.41493)
(1.91441 3.54087 1.14373)
(1.92389 3.53889 1.22926)
(1.91436 3.54088 1.14328)
(1.90912 3.54197 1.09598)
(1.908 3.54221 1.08591)
(1.90743 3.54232 1.0808)
(1.92387 3.53882 1.2295)
(1.83088 3.46375 1.3319)
(1.8298 3.48167 1.36777)
(1.84897 3.46791 1.33609)
(1.85104 3.46815 1.33595)
(1.91361 3.4846 1.31241)
(1.91377 3.48044 1.30245)
(1.9016 3.47116 1.31173)
(1.91074 3.46946 1.20378)
(1.91083 3.46953 1.204)
(1.87368 3.44117 1.17758)
(1.91072 3.46842 1.20284)
(1.90402 3.45946 1.19241)
(1.8736 3.44134 1.17762)
(1.91063 3.4692 1.20337)
(1.86217 3.4369 1.1776)
(1.86239 3.43673 1.17802)
(1.91066 3.46585 1.20275)
(1.90827 3.45811 1.20005)
(1.90571 3.45895 1.19489)
(1.89213 3.44878 1.18488)
(1.9052 3.45915 1.19406)
(1.89168 3.44935 1.18461)
(1.90916 3.46642 1.20003)
(1.90479 3.45928 1.19345)
(1.89075 3.45055 1.18421)
(1.90493 3.45924 1.19365)
(1.89122 3.44994 1.18439)
(1.90903 3.46558 1.19922)
(1.89032 3.45112 1.18409)
(1.8905 3.45088 1.18413)
(1.89038 3.45104 1.1841)
(1.90905 3.46613 1.19962)
(1.87493 3.43663 1.17753)
(1.87812 3.43235 1.1781)
(1.87179 3.43977 1.17769)
(1.867 3.43861 1.17815)
(1.87207 3.43934 1.17781)
(1.8671 3.43852 1.17836)
(1.87193 3.43956 1.17775)
(1.86987 3.43863 1.1785)
(1.87235 3.43887 1.17789)
(1.86683 3.43867 1.17764)
(1.86676 3.43865 1.17733)
(1.86516 3.43721 1.17881)
(1.86747 3.43808 1.1788)
(1.86927 3.4406 1.12388)
(1.9042 3.46644 1.16876)
(1.89602 3.46032 1.13167)
(1.84884 3.52711 1.41839)
(1.90708 3.5424 1.07759)
(1.90764 3.5427 1.08013)
(1.91035 3.54413 1.09313)
(1.91742 3.54786 1.127)
(1.94219 3.55032 1.29686)
(1.93433 3.55724 1.23931)
(1.94219 3.52153 1.3871)
(1.94219 3.51095 1.37608)
(1.8 3.46068 1.32307)
(1.80692 3.48357 1.40893)
(1.8 3.48248 1.38701)
(1.8 3.47032 1.34223)
(1.84723 3.46655 1.33427)
(1.8 3.47841 1.36384)
(1.83976 3.49582 1.38915)
(1.85531 3.46817 1.33478)
(1.82644 3.48081 1.36728)
(1.84336 3.50901 1.40301)
(1.84357 3.50867 1.4024)
(1.84425 3.50109 1.39216)
(1.91655 3.48398 1.28571)
(1.90875 3.47483 1.30613)
(1.91112 3.466 1.20427)
(1.87136 3.4404 1.17739)
(1.91192 3.46943 1.20596)
(1.87847 3.39991 1.1928)
(1.88209 3.3955 1.20167)
(1.8865 3.3939 1.22136)
(1.88744 3.39704 1.23106)
(1.8739 3.4064 1.18529)
(1.88474 3.39344 1.21131)
(1.89302 3.4477 1.18552)
(1.87557 3.43661 1.17729)
(1.87363 3.44004 1.17737)
(1.84619 3.42308 1.18098)
(1.90714 3.49192 1.06813)
(1.90755 3.49302 1.06823)
(1.83059 3.42435 1.18657)
(1.88768 3.45423 1.06683)
(1.87193 3.5346 1.40854)
(1.89468 3.53681 1.40105)
(1.91829 3.53695 1.39655)
(1.94219 3.511 1.31761)
(1.94219 3.52178 1.30644)
(1.94219 3.5353 1.29931)
)


// edges:

383
(
(198 20)
(29 199)
(200 31)
(19 201)
(202 33)
(203 204)
(0 205)
(37 205)
(39 40)
(41 206)
(43 207)
(208 38)
(44 208)
(45 46)
(209 45)
(47 209)
(42 210)
(211 0)
(40 48)
(47 40)
(39 47)
(51 212)
(52 213)
(49 54)
(53 55)
(214 57)
(215 58)
(60 61)
(216 217)
(218 219)
(220 221)
(62 63)
(63 222)
(223 224)
(0 62)
(44 65)
(225 66)
(226 65)
(48 46)
(64 227)
(66 228)
(229 64)
(230 231)
(232 233)
(234 67)
(235 236)
(237 238)
(67 237)
(43 239)
(42 240)
(54 68)
(55 241)
(241 242)
(68 70)
(243 50)
(243 74)
(244 245)
(246 28)
(79 246)
(84 87)
(88 247)
(90 73)
(248 92)
(100 248)
(6 249)
(6 250)
(250 249)
(23 1)
(1 90)
(79 1)
(8 84)
(251 8)
(8 252)
(9 10)
(253 254)
(254 18)
(21 255)
(255 22)
(23 256)
(257 23)
(25 258)
(256 26)
(259 198)
(28 199)
(260 257)
(28 29)
(27 2)
(261 29)
(259 262)
(258 260)
(263 2)
(2 28)
(3 264)
(19 3)
(3 265)
(31 266)
(265 31)
(31 201)
(267 32)
(268 203)
(206 37)
(40 38)
(207 42)
(215 269)
(46 47)
(210 270)
(226 46)
(271 41)
(52 212)
(53 213)
(4 270)
(51 4)
(272 273)
(274 275)
(276 272)
(277 274)
(273 277)
(59 276)
(278 216)
(218 217)
(223 219)
(62 221)
(63 224)
(229 63)
(64 222)
(279 231)
(66 44)
(65 66)
(64 225)
(66 64)
(65 46)
(65 48)
(227 66)
(48 47)
(228 65)
(233 236)
(67 238)
(232 239)
(234 235)
(43 280)
(4 42)
(43 240)
(281 68)
(242 55)
(282 69)
(283 282)
(5 283)
(70 284)
(50 74)
(72 285)
(285 77)
(76 75)
(16 14)
(286 287)
(78 253)
(79 286)
(287 288)
(288 78)
(289 290)
(11 289)
(291 251)
(290 291)
(78 11)
(82 5)
(5 69)
(252 85)
(85 247)
(8 86)
(101 102)
(102 9)
(103 104)
(105 103)
(11 106)
(107 11)
(104 107)
(10 101)
(108 109)
(106 13)
(15 105)
(110 19)
(13 111)
(111 20)
(109 112)
(112 113)
(113 114)
(114 115)
(115 110)
(116 21)
(117 118)
(119 24)
(24 120)
(118 119)
(120 116)
(121 27)
(26 121)
(29 19)
(30 122)
(122 25)
(22 123)
(123 30)
(19 108)
(13 11)
(20 13)
(124 125)
(126 34)
(127 128)
(11 127)
(129 130)
(32 126)
(34 129)
(130 124)
(35 32)
(128 33)
(33 35)
(24 117)
(36 131)
(131 24)
(132 133)
(38 39)
(134 135)
(41 37)
(37 132)
(133 134)
(135 38)
(136 137)
(138 49)
(137 41)
(50 139)
(140 138)
(125 141)
(51 142)
(45 143)
(142 52)
(52 53)
(139 140)
(54 144)
(144 51)
(35 145)
(146 35)
(143 50)
(147 148)
(56 149)
(149 150)
(57 136)
(151 57)
(58 151)
(152 59)
(153 154)
(154 155)
(150 152)
(53 153)
(155 56)
(148 58)
(156 157)
(145 147)
(141 156)
(60 34)
(34 61)
(61 158)
(157 60)
(158 146)
(56 54)
(59 56)
(71 159)
(159 36)
(69 72)
(160 73)
(73 161)
(74 162)
(50 45)
(162 76)
(49 50)
(77 163)
(75 160)
(163 74)
(161 70)
(19 164)
(164 165)
(165 79)
(39 166)
(167 11)
(168 167)
(169 170)
(171 169)
(166 172)
(173 168)
(172 35)
(35 171)
(170 173)
(70 174)
(174 175)
(175 176)
(176 71)
(177 178)
(178 179)
(179 180)
(180 177)
(98 78)
(9 181)
(181 95)
(79 23)
(29 79)
(26 27)
(77 76)
(75 73)
(73 82)
(82 83)
(83 5)
(69 77)
(82 72)
(7 182)
(182 88)
(22 30)
(90 21)
(36 24)
(24 90)
(30 25)
(71 36)
(87 88)
(88 183)
(183 79)
(73 71)
(7 94)
(184 83)
(83 91)
(91 184)
(91 185)
(185 89)
(92 88)
(85 6)
(7 91)
(92 91)
(90 186)
(187 73)
(188 187)
(186 93)
(93 189)
(189 188)
(190 79)
(23 190)
(93 90)
(79 93)
(191 192)
(193 191)
(194 193)
(195 194)
(196 195)
(86 196)
(192 197)
(197 78)
(6 94)
(7 6)
(95 11)
(12 96)
(15 10)
(97 16)
(14 15)
(16 17)
(17 12)
(18 97)
(16 18)
(16 78)
(78 18)
(16 80)
(80 17)
(80 12)
(80 81)
(81 12)
(81 96)
(81 98)
(78 14)
(15 78)
(8 78)
(82 77)
(84 85)
(85 86)
(86 84)
(87 8)
(89 99)
(99 5)
(5 89)
(6 91)
(6 100)
)

// * * * * * * * * * * * * * * * * * * * * * * * * * * * * * * * * * * * * * //


// ************************************************************************* //
