/*--------------------------------*- C++ -*----------------------------------*\
| =========                 |                                                 |
| \\      /  F ield         | OpenFOAM: The Open Source CFD Toolbox           |
|  \\    /   O peration     | Version:  2.2.x                                 |
|   \\  /    A nd           | Web:      www.OpenFOAM.org                      |
|    \\/     M anipulation  |                                                 |
\*---------------------------------------------------------------------------*/
FoamFile
{
    version     2.0;
    format      ascii;
    class       featureEdgeMesh;
    location    "constant/triSurface";
    object      femur_left_front.eMesh;
}
// * * * * * * * * * * * * * * * * * * * * * * * * * * * * * * * * * * * * * //


// points:

71
(
(1.97392 3.55032 0.796602)
(1.96137 3.5533 0.536602)
(1.96147 3.55747 0.536602)
(1.84727 3.46017 0.867002)
(1.88436 3.45986 0.91838)
(1.86825 3.45658 0.896982)
(1.87397 3.45774 0.904587)
(1.83411 3.55029 0.665775)
(1.86539 3.53812 0.536602)
(1.81392 3.55032 0.796602)
(1.86331 3.45637 0.890208)
(1.86 3.45716 0.885416)
(1.93833 3.53398 0.973087)
(1.93537 3.52407 0.971659)
(1.93679 3.52883 0.972345)
(1.89429 3.46511 0.93071)
(1.88886 3.46224 0.92397)
(1.89081 3.46326 0.926385)
(1.94119 3.54924 0.97293)
(1.92335 3.49762 0.962155)
(1.93175 3.51484 0.969135)
(1.90319 3.4719 0.941193)
(1.90544 3.47437 0.943644)
(1.96078 3.55733 0.536602)
(1.86512 3.45594 0.89283)
(1.92229 3.47988 0.666455)
(1.92072 3.46081 0.796602)
(1.97198 3.52945 0.796602)
(1.96616 3.50945 0.796602)
(1.95243 3.48552 0.796602)
(1.93265 3.46718 0.796602)
(1.82368 3.54945 0.731455)
(1.92157 3.46882 0.731361)
(1.93398 3.51942 0.970989)
(1.94325 3.4755 0.796602)
(1.97047 3.52265 0.796602)
(1.96012 3.49698 0.796602)
(1.90393 3.47256 0.942042)
(1.88904 3.46203 0.924268)
(1.87455 3.45684 0.905638)
(1.86045 3.45625 0.886278)
(1.92798 3.50523 0.966506)
(1.93625 3.52631 0.972273)
(1.93178 3.55436 0.0916016)
(1.93161 3.55431 0.0916016)
(1.93165 3.54566 0.0916016)
(1.93182 3.54692 0.0916016)
(1.91924 3.49086 0.958289)
(1.93635 3.50642 0.536602)
(1.92821 3.50282 0.536602)
(1.96474 3.56111 0.666402)
(1.94365 3.51142 0.536602)
(1.95503 3.52477 0.536602)
(1.94993 3.5176 0.536602)
(1.96118 3.54504 0.536602)
(1.96109 3.54087 0.536602)
(1.96073 3.55944 0.601465)
(1.95961 3.53693 0.536602)
(1.91634 3.50042 0.536602)
(1.90479 3.501 0.536602)
(1.81951 3.49314 0.819794)
(1.83141 3.4728 0.841616)
(1.81346 3.51967 0.804142)
(1.81548 3.50565 0.811085)
(1.86951 3.52712 0.536602)
(1.88418 3.50989 0.536602)
(1.82835 3.52879 0.714116)
(1.82961 3.51835 0.721249)
(1.95415 3.5498 0.929745)
(1.92119 3.49319 0.960358)
(1.96661 3.55032 0.886513)
)


// edges:

98
(
(4 15)
(22 47)
(8 23)
(18 9)
(48 49)
(0 50)
(51 48)
(52 53)
(54 55)
(1 54)
(56 2)
(57 52)
(55 57)
(50 56)
(53 51)
(58 59)
(60 61)
(8 7)
(9 62)
(62 63)
(63 60)
(49 58)
(61 3)
(64 8)
(65 64)
(59 65)
(66 67)
(13 12)
(16 15)
(18 68)
(69 19)
(70 0)
(68 70)
(47 69)
(8 9)
(25 26)
(27 0)
(28 27)
(29 28)
(30 29)
(31 9)
(32 25)
(26 32)
(7 31)
(33 13)
(14 12)
(17 15)
(12 18)
(20 33)
(34 30)
(0 35)
(15 21)
(35 36)
(36 34)
(21 37)
(37 22)
(4 38)
(38 16)
(6 39)
(39 4)
(3 40)
(40 11)
(19 41)
(41 20)
(13 42)
(42 14)
(21 22)
(20 13)
(14 18)
(7 9)
(43 44)
(44 45)
(45 46)
(46 43)
(2 1)
(24 5)
(6 4)
(5 6)
(10 24)
(11 10)
(3 11)
(13 14)
(4 16)
(16 17)
(19 20)
(1 23)
(23 2)
(5 10)
(5 11)
(6 11)
(6 3)
(4 3)
(16 3)
(16 9)
(9 3)
(17 9)
(17 21)
(21 9)
)

// * * * * * * * * * * * * * * * * * * * * * * * * * * * * * * * * * * * * * //


// ************************************************************************* //
