/*--------------------------------*- C++ -*----------------------------------*\
| =========                 |                                                 |
| \\      /  F ield         | OpenFOAM: The Open Source CFD Toolbox           |
|  \\    /   O peration     | Version:  2.2.x                                 |
|   \\  /    A nd           | Web:      www.OpenFOAM.org                      |
|    \\/     M anipulation  |                                                 |
\*---------------------------------------------------------------------------*/
FoamFile
{
    version     2.0;
    format      ascii;
    class       featureEdgeMesh;
    location    "constant/triSurface";
    object      femur_left_back.eMesh;
}
// * * * * * * * * * * * * * * * * * * * * * * * * * * * * * * * * * * * * * //


// points:

55
(
(1.94236 3.56785 0.969541)
(1.94119 3.54924 0.97293)
(1.93038 3.61727 0.939658)
(1.90784 3.63939 0.902535)
(1.93775 3.59998 0.954517)
(1.94168 3.58015 0.965293)
(1.9417 3.58016 0.965315)
(1.9202 3.63056 0.922009)
(1.97392 3.55032 0.796602)
(1.96474 3.56111 0.666402)
(1.96147 3.55747 0.536602)
(1.86539 3.53812 0.536602)
(1.85439 3.62976 0.831195)
(1.84314 3.61875 0.818591)
(1.83301 3.6048 0.808337)
(1.82448 3.5882 0.801003)
(1.86613 3.63755 0.845332)
(1.81804 3.56977 0.797065)
(1.81392 3.55032 0.796602)
(1.88983 3.64362 0.876481)
(1.95465 3.57956 0.601411)
(1.94235 3.56506 0.970271)
(1.94228 3.56655 0.969778)
(1.96846 3.58484 0.796602)
(1.97255 3.56784 0.796602)
(1.89392 3.64532 0.796602)
(1.90058 3.62476 0.666244)
(1.89717 3.63507 0.73146)
(1.93178 3.55436 0.0916016)
(1.93161 3.55431 0.0916016)
(1.93165 3.54566 0.0916016)
(1.93182 3.54692 0.0916016)
(1.9517 3.58573 0.922281)
(1.96073 3.55944 0.601465)
(1.96078 3.55733 0.536602)
(1.95415 3.5498 0.929745)
(1.96661 3.55032 0.886513)
(1.91292 3.60032 0.536602)
(1.92189 3.59947 0.536602)
(1.93039 3.597 0.536602)
(1.95126 3.5814 0.536602)
(1.95609 3.57396 0.536602)
(1.93823 3.59307 0.536602)
(1.94525 3.58782 0.536602)
(1.83411 3.55029 0.665775)
(1.86392 3.55032 0.536602)
(1.86491 3.56035 0.536602)
(1.86775 3.56972 0.536602)
(1.87225 3.57821 0.536602)
(1.87821 3.58562 0.536602)
(1.82368 3.54945 0.731455)
(1.903 3.5993 0.536602)
(1.88546 3.59174 0.536602)
(1.89378 3.59637 0.536602)
(1.9631 3.55929 0.601502)
)


// edges:

75
(
(0 5)
(32 5)
(10 33)
(33 9)
(34 10)
(11 34)
(35 1)
(36 35)
(6 32)
(8 36)
(37 38)
(38 39)
(9 8)
(40 41)
(42 43)
(43 40)
(41 10)
(39 42)
(44 11)
(11 45)
(46 47)
(48 49)
(50 44)
(47 48)
(18 50)
(51 37)
(45 46)
(52 53)
(49 52)
(53 51)
(10 54)
(54 9)
(1 22)
(22 0)
(23 24)
(0 6)
(24 8)
(25 26)
(8 23)
(27 25)
(26 27)
(10 9)
(28 29)
(29 30)
(30 31)
(31 28)
(3 19)
(4 2)
(6 5)
(6 4)
(2 7)
(7 3)
(10 20)
(9 20)
(12 13)
(14 15)
(15 17)
(17 18)
(16 12)
(13 14)
(19 16)
(21 18)
(18 1)
(21 17)
(5 17)
(5 15)
(6 15)
(4 15)
(4 14)
(2 14)
(2 13)
(7 13)
(7 12)
(7 16)
(3 16)
)

// * * * * * * * * * * * * * * * * * * * * * * * * * * * * * * * * * * * * * //


// ************************************************************************* //
