/*--------------------------------*- C++ -*----------------------------------*\
| =========                 |                                                 |
| \\      /  F ield         | OpenFOAM: The Open Source CFD Toolbox           |
|  \\    /   O peration     | Version:  2.2.x                                 |
|   \\  /    A nd           | Web:      www.OpenFOAM.org                      |
|    \\/     M anipulation  |                                                 |
\*---------------------------------------------------------------------------*/
FoamFile
{
    version     2.0;
    format      ascii;
    class       featureEdgeMesh;
    location    "constant/triSurface";
    object      femur_right_back.eMesh;
}
// * * * * * * * * * * * * * * * * * * * * * * * * * * * * * * * * * * * * * //


// points:

60
(
(1.62608 3.55032 0.796602)
(1.63853 3.55747 0.536602)
(1.6583 3.58016 0.965315)
(1.65881 3.54924 0.97293)
(1.65764 3.56785 0.969541)
(1.65831 3.58015 0.965293)
(1.78608 3.55032 0.796602)
(1.697 3.5993 0.536602)
(1.73509 3.56035 0.536602)
(1.73608 3.55032 0.536602)
(1.73601 3.55098 0.536602)
(1.7354 3.55722 0.536602)
(1.73536 3.55762 0.536602)
(1.70605 3.59644 0.536602)
(1.63154 3.58484 0.796602)
(1.69942 3.62476 0.666244)
(1.70608 3.64532 0.796602)
(1.62744 3.56784 0.796602)
(1.6483 3.58573 0.922281)
(1.65772 3.56657 0.969774)
(1.73539 3.55733 0.536602)
(1.73535 3.5577 0.536602)
(1.70179 3.59779 0.536602)
(1.70283 3.63507 0.73146)
(1.93178 3.55436 0.0916016)
(1.93161 3.55431 0.0916016)
(1.93165 3.54566 0.0916016)
(1.93182 3.54692 0.0916016)
(1.65823 3.57869 0.965797)
(1.65475 3.58782 0.536602)
(1.66177 3.59307 0.536602)
(1.63526 3.56111 0.666402)
(1.64874 3.5814 0.536602)
(1.64391 3.57396 0.536602)
(1.63927 3.55944 0.601465)
(1.67811 3.59947 0.536602)
(1.68708 3.60032 0.536602)
(1.66961 3.597 0.536602)
(1.66962 3.61727 0.939658)
(1.66225 3.59998 0.954517)
(1.63339 3.55032 0.886513)
(1.64585 3.5498 0.929745)
(1.6798 3.63056 0.922008)
(1.71017 3.64362 0.876481)
(1.69216 3.63939 0.902534)
(1.78196 3.56977 0.797065)
(1.76586 3.55029 0.665729)
(1.76699 3.6048 0.808337)
(1.75686 3.61875 0.818591)
(1.77552 3.5882 0.801003)
(1.73387 3.63755 0.845332)
(1.73507 3.56045 0.536602)
(1.73227 3.56967 0.536602)
(1.73225 3.56972 0.536602)
(1.72786 3.57804 0.536602)
(1.72775 3.57821 0.536602)
(1.74561 3.62976 0.831195)
(1.70622 3.59637 0.536602)
(1.71455 3.59174 0.536602)
(1.72179 3.58562 0.536602)
)


// edges:

71
(
(4 28)
(28 5)
(3 6)
(9 1)
(8 10)
(8 11)
(8 12)
(29 30)
(0 31)
(32 29)
(1 33)
(34 1)
(33 32)
(35 36)
(30 37)
(37 35)
(31 34)
(38 39)
(40 0)
(39 2)
(3 41)
(41 40)
(42 38)
(43 44)
(44 42)
(6 45)
(46 6)
(47 48)
(36 7)
(49 47)
(50 43)
(51 8)
(52 51)
(53 52)
(54 53)
(55 54)
(9 46)
(45 49)
(56 50)
(48 56)
(13 57)
(58 59)
(59 55)
(57 58)
(14 0)
(15 16)
(0 17)
(2 18)
(17 14)
(19 3)
(4 19)
(2 4)
(18 5)
(10 9)
(11 10)
(20 11)
(12 20)
(8 21)
(21 12)
(22 13)
(7 22)
(23 15)
(16 23)
(4 3)
(5 4)
(7 13)
(24 25)
(25 26)
(26 27)
(27 24)
(8 9)
)

// * * * * * * * * * * * * * * * * * * * * * * * * * * * * * * * * * * * * * //


// ************************************************************************* //
