/*--------------------------------*- C++ -*----------------------------------*\
| =========                 |                                                 |
| \\      /  F ield         | OpenFOAM: The Open Source CFD Toolbox           |
|  \\    /   O peration     | Version:  2.2.x                                 |
|   \\  /    A nd           | Web:      www.OpenFOAM.org                      |
|    \\/     M anipulation  |                                                 |
\*---------------------------------------------------------------------------*/
FoamFile
{
    version     2.0;
    format      ascii;
    class       featureEdgeMesh;
    location    "constant/triSurface";
    object      femur_right_front.eMesh;
}
// * * * * * * * * * * * * * * * * * * * * * * * * * * * * * * * * * * * * * //


// points:

63
(
(1.63853 3.55747 0.536602)
(1.6718 3.50282 0.536602)
(1.70571 3.46511 0.93071)
(1.69681 3.4719 0.941193)
(1.65881 3.54924 0.97293)
(1.67881 3.49319 0.960358)
(1.69606 3.47256 0.942042)
(1.69455 3.47437 0.94365)
(1.68076 3.49086 0.958288)
(1.66463 3.52407 0.971659)
(1.66321 3.52883 0.972345)
(1.67665 3.49762 0.962155)
(1.66825 3.51484 0.969135)
(1.78608 3.55032 0.796602)
(1.76586 3.55029 0.665729)
(1.73485 3.54001 0.536602)
(1.73608 3.55032 0.536602)
(1.7366 3.45637 0.890333)
(1.73164 3.45658 0.897131)
(1.73416 3.5369 0.536602)
(1.73049 3.52712 0.536602)
(1.71582 3.50989 0.536602)
(1.69521 3.501 0.536602)
(1.71669 3.51091 0.536602)
(1.67928 3.46081 0.796602)
(1.67771 3.47988 0.666455)
(1.70913 3.4633 0.926467)
(1.66167 3.53398 0.973087)
(1.66602 3.51942 0.970989)
(1.73461 3.53812 0.536602)
(1.73477 3.45594 0.892983)
(1.68366 3.50042 0.536602)
(1.7763 3.54949 0.731387)
(1.67843 3.46882 0.731361)
(1.71673 3.51096 0.536602)
(1.68411 3.50042 0.536602)
(1.69504 3.50117 0.536602)
(1.73463 3.53899 0.536602)
(1.73504 3.45643 0.892475)
(1.93178 3.55436 0.0916016)
(1.93161 3.55431 0.0916016)
(1.93165 3.54566 0.0916016)
(1.93182 3.54692 0.0916016)
(1.71564 3.45986 0.91838)
(1.76968 3.52953 0.701638)
(1.63927 3.55944 0.601465)
(1.64497 3.52477 0.536602)
(1.63891 3.54087 0.536602)
(1.66365 3.50642 0.536602)
(1.65635 3.51142 0.536602)
(1.63526 3.56111 0.666402)
(1.62608 3.55032 0.796602)
(1.65007 3.5176 0.536602)
(1.64585 3.5498 0.929745)
(1.63339 3.55032 0.886513)
(1.78658 3.51966 0.804136)
(1.77507 3.48211 0.830092)
(1.78453 3.50574 0.811027)
(1.75273 3.46017 0.867002)
(1.76492 3.46888 0.847731)
(1.76693 3.54788 0.671059)
(1.77039 3.51835 0.721249)
(1.77164 3.52879 0.714116)
)


// edges:

76
(
(2 43)
(44 14)
(0 16)
(13 4)
(20 23)
(0 45)
(46 47)
(1 48)
(48 49)
(47 0)
(50 51)
(52 46)
(49 52)
(45 50)
(53 4)
(51 54)
(5 6)
(8 7)
(10 9)
(12 11)
(54 53)
(55 13)
(56 57)
(16 15)
(14 16)
(17 58)
(59 56)
(43 18)
(57 55)
(58 59)
(19 20)
(21 22)
(14 60)
(61 62)
(24 25)
(2 26)
(3 2)
(4 27)
(6 3)
(7 6)
(5 8)
(9 28)
(27 10)
(11 5)
(28 12)
(15 29)
(30 17)
(31 1)
(13 32)
(18 30)
(29 19)
(33 24)
(22 31)
(25 33)
(23 21)
(20 34)
(34 23)
(32 14)
(35 1)
(36 35)
(22 36)
(37 19)
(15 37)
(18 38)
(38 17)
(3 26)
(7 3)
(11 8)
(9 12)
(4 10)
(13 14)
(39 40)
(40 41)
(41 42)
(42 39)
(20 21)
)

// * * * * * * * * * * * * * * * * * * * * * * * * * * * * * * * * * * * * * //


// ************************************************************************* //
