/*--------------------------------*- C++ -*----------------------------------*\
| =========                 |                                                 |
| \\      /  F ield         | OpenFOAM: The Open Source CFD Toolbox           |
|  \\    /   O peration     | Version:  2.2.x                                 |
|   \\  /    A nd           | Web:      www.OpenFOAM.org                      |
|    \\/     M anipulation  |                                                 |
\*---------------------------------------------------------------------------*/
FoamFile
{
    version     2.0;
    format      ascii;
    class       featureEdgeMesh;
    location    "constant/triSurface";
    object      foot_left.eMesh;
}
// * * * * * * * * * * * * * * * * * * * * * * * * * * * * * * * * * * * * * //


// points:

345
(
(1.95135 3.42769 0.00577187)
(1.95021 3.43113 0.00322735)
(1.889 3.39206 0.0098753)
(1.90872 3.51433 0.0916016)
(1.88254 3.55481 0.00531101)
(1.8838 3.56746 0.00271094)
(1.88296 3.44252 0.00673413)
(1.88239 3.5612 0.00396323)
(1.95021 3.43272 0.00326252)
(1.88962 3.38979 0.0204872)
(1.91232 3.58572 0.0916016)
(1.94975 3.43629 0.00274599)
(1.8925 3.49496 0.0103397)
(1.92249 3.57413 0.00233066)
(1.92683 3.56474 0.00389755)
(1.88675 3.39428 0.0139292)
(1.88619 3.39565 0.0137169)
(1.89014 3.3865 0.0176017)
(1.93178 3.55436 0.0916016)
(1.93165 3.54566 0.0916016)
(1.88894 3.38852 0.0169133)
(1.89316 3.51866 0.0106337)
(1.88596 3.54275 0.00780034)
(1.89284 3.52098 0.0105646)
(1.88302 3.4434 0.00681901)
(1.88485 3.54618 0.00731158)
(1.88223 3.55921 0.00480652)
(1.89278 3.52113 0.010628)
(1.89264 3.52143 0.0108146)
(1.87916 3.43552 0.0286241)
(1.88069 3.41968 0.0182287)
(1.88485 3.54602 0.00724363)
(1.90671 3.59179 0.00590372)
(1.90621 3.58731 0.0015831)
(1.90618 3.58707 0.00142634)
(1.90715 3.59618 0.0133927)
(1.9059 3.58463 0.000163317)
(1.90641 3.58907 0.00295436)
(1.88791 3.39043 0.0163885)
(1.92862 3.5538 0.00493586)
(1.92899 3.55452 0.00572383)
(1.9312 3.55907 0.0182344)
(1.88948 3.38759 0.0172129)
(1.92951 3.55567 0.00759924)
(1.92726 3.5661 0.00574124)
(1.92779 3.56803 0.0097152)
(1.927 3.55989 0.00306284)
(1.94712 3.47248 0.00527668)
(1.9367 3.51281 0.0071063)
(1.89014 3.38675 0.0174974)
(1.91694 3.51696 0.0916016)
(1.9367 3.51279 0.00708485)
(1.94914 3.45144 0.003775)
(1.92853 3.55011 0.0048914)
(1.95036 3.43078 0.00348163)
(1.94988 3.43333 0.00286698)
(1.95012 3.43148 0.00313795)
(1.95007 3.43194 0.00308085)
(1.95011 3.43163 0.00314045)
(1.88402 3.55371 0.0916016)
(1.88419 3.54478 0.0916016)
(1.88498 3.56019 0.0916016)
(1.88435 3.55592 0.0916016)
(1.94971 3.44106 0.00291336)
(1.92707 3.55953 0.00313318)
(1.89783 3.583 0.0916016)
(1.89218 3.57752 0.0916016)
(1.8853 3.56239 0.0916016)
(1.88799 3.57046 0.0916016)
(1.88453 3.54338 0.0916016)
(1.88525 3.54045 0.0916016)
(1.91966 3.39121 0.0147735)
(1.92288 3.57574 0.00410593)
(1.92225 3.57318 0.00156093)
(1.91496 3.57964 0.000107765)
(1.93304 3.55382 0.0212194)
(1.95159 3.44399 0.0121785)
(1.93632 3.51274 0.00697517)
(1.92711 3.57633 0.0173993)
(1.9284 3.55342 0.00462008)
(1.95216 3.42279 0.00603127)
(1.95213 3.42273 0.00606191)
(1.95099 3.42681 0.00432992)
(1.94056 3.51397 0.0232569)
(1.94904 3.46844 0.0175424)
(1.94216 3.50814 0.023263)
(1.95016 3.43462 0.0032506)
(1.95084 3.42956 0.00462198)
(1.95213 3.42538 0.00689066)
(1.95203 3.43335 0.00927198)
(1.95212 3.42804 0.00770438)
(1.95096 3.42746 0.00438487)
(1.95219 3.42286 0.00602317)
(1.95 3.43522 0.00296354)
(1.91176 3.58949 0.00611603)
(1.94972 3.46535 0.0170985)
(1.95213 3.42677 0.00731897)
(1.94056 3.51399 0.0232737)
(1.92249 3.57416 0.0023489)
(1.95215 3.42276 0.00604355)
(1.91175 3.58944 0.00604737)
(1.95018 3.43131 0.00319231)
(1.94935 3.44149 0.00268233)
(1.94933 3.44173 0.00271833)
(1.95034 3.43007 0.00341892)
(1.95024 3.43119 0.00330937)
(1.95202 3.43366 0.00936091)
(1.92726 3.56609 0.00571227)
(1.952 3.43411 0.00948977)
(1.95018 3.43141 0.00322378)
(1.94976 3.43449 0.00274849)
(1.95023 3.43076 0.00327671)
(1.95018 3.43129 0.00322306)
(1.94676 3.47269 0.00525057)
(1.9503 3.43098 0.00339437)
(1.9503 3.43094 0.00339234)
(1.94638 3.4126 0.0085721)
(1.952 3.42247 0.00613415)
(1.92091 3.52003 0.0916016)
(1.9316 3.55634 0.0916016)
(1.92898 3.5676 0.0916016)
(1.93131 3.55761 0.0916016)
(1.92685 3.52819 0.0916016)
(1.92905 3.53324 0.0916016)
(1.93166 3.54464 0.0916016)
(1.9316 3.55559 0.0916016)
(1.9243 3.57647 0.0916016)
(1.92847 3.56893 0.0916016)
(1.92051 3.58097 0.0916016)
(1.91658 3.5839 0.0916016)
(1.91449 3.58495 0.0916016)
(1.92036 3.58109 0.0916016)
(1.91013 3.58617 0.0916016)
(1.93132 3.54318 0.0916016)
(1.9242 3.52384 0.0916016)
(1.92147 3.52068 0.0916016)
(1.92245 3.52181 0.0916016)
(1.9494 3.45181 0.00390911)
(1.91996 3.5748 0.000566482)
(1.93238 3.52556 0.00730848)
(1.94926 3.44481 0.00297272)
(1.95112 3.42764 0.00467014)
(1.9439 3.48584 0.00561237)
(1.88437 3.54493 0.0916016)
(1.92449 3.56754 0.00165296)
(1.88859 3.58555 0.0555151)
(1.89314 3.58452 0.0726236)
(1.9064 3.58896 0.00285196)
(1.92882 3.55417 0.00530839)
(1.93149 3.5593 0.0193125)
(1.92653 3.56389 0.00310016)
(1.92345 3.57806 0.00790131)
(1.92345 3.57804 0.00784111)
(1.91628 3.58637 0.00653303)
(1.91627 3.58633 0.00646591)
(1.91574 3.5837 0.00309038)
(1.91538 3.58188 0.00145638)
(1.93078 3.55855 0.0160102)
(1.92927 3.56634 0.0916016)
(1.91453 3.58495 0.0916016)
(1.93182 3.54692 0.0916016)
(1.93161 3.55431 0.0916016)
(1.89975 3.59512 0.0125089)
(1.893 3.59211 0.0131383)
(1.87965 3.50699 0.0386056)
(1.87994 3.45149 0.0279509)
(1.90671 3.59175 0.00580406)
(1.88748 3.58747 0.0152053)
(1.88179 3.57545 0.0220803)
(1.88056 3.56209 0.0293401)
(1.87994 3.53494 0.0375197)
(1.88606 3.39442 0.0156323)
(1.88321 3.40282 0.0152572)
(1.89786 3.58244 0.000231028)
(1.88381 3.58176 0.0183705)
(1.92558 3.5648 0.00214374)
(1.88836 3.58842 0.0147272)
(1.89145 3.59108 0.0135318)
(1.94702 3.47132 0.00523424)
(1.93123 3.53021 0.00719798)
(1.90166 3.58376 0.000140071)
(1.89009 3.38679 0.0174863)
(1.88945 3.38764 0.0171952)
(1.93708 3.51036 0.00685322)
(1.88415 3.54707 0.0916016)
(1.88407 3.5515 0.0916016)
(1.88972 3.38718 0.017354)
(1.92348 3.56953 0.00132883)
(1.90904 3.58329 5.38826e-05)
(1.88839 3.38952 0.0166225)
(1.92062 3.57398 0.000672817)
(1.91686 3.57805 0.000225782)
(1.91189 3.58177 2.49147e-05)
(1.88261 3.5786 0.0202224)
(1.88585 3.58538 0.0163233)
(1.87972 3.51735 0.038895)
(1.8802 3.54848 0.0344906)
(1.90294 3.59584 0.0127039)
(1.89884 3.59484 0.0125065)
(1.89498 3.59323 0.012787)
(1.88061 3.56366 0.0285836)
(1.87963 3.48566 0.0360564)
(1.88244 3.40609 0.0155053)
(1.88052 3.42293 0.0191531)
(1.88482 3.39761 0.0153114)
(1.90535 3.38713 0.0165268)
(1.92817 3.55302 0.00436294)
(1.92618 3.56296 0.00248241)
(1.92288 3.57571 0.00406694)
(1.92197 3.57211 0.00092411)
(1.95028 3.43041 0.00334466)
(1.95056 3.42887 0.0037092)
(1.95045 3.42943 0.0035671)
(1.94744 3.47222 0.00534666)
(1.94912 3.45211 0.0038631)
(1.94023 3.51405 0.0228853)
(1.94712 3.47246 0.00525284)
(1.90949 3.38794 0.0160985)
(1.92799 3.53079 0.0916016)
(1.9278 3.57455 0.0177375)
(1.93482 3.54513 0.0223012)
(1.92983 3.3966 0.0129965)
(1.93883 3.40378 0.0109136)
(1.95213 3.42331 0.00624347)
(1.94616 3.48855 0.021126)
(1.94385 3.49307 0.0263432)
(1.92006 3.58779 0.0151182)
(1.92458 3.58155 0.0163759)
(1.91415 3.59278 0.0140992)
(1.92391 3.57718 0.0916016)
(1.95083 3.42001 0.00672018)
(1.94286 3.40806 0.00975335)
(1.95163 3.42164 0.00632489)
(1.95211 3.42288 0.00612867)
(1.95209 3.42277 0.00611854)
(1.93233 3.39832 0.0124757)
(1.9252 3.52549 0.0916016)
(1.9264 3.52744 0.0916016)
(1.91362 3.58064 5.6386e-05)
(1.88523 3.56127 0.0916016)
(1.88485 3.54033 0.0916016)
(1.88427 3.54595 0.0916016)
(1.92375 3.57712 0.0916016)
(1.92378 3.57708 0.0916016)
(1.92047 3.58095 0.0916016)
(1.93085 3.53965 0.0916016)
(1.92489 3.57578 0.0916016)
(1.88438 3.54483 0.0916016)
(1.9315 3.55628 0.0916016)
(1.93151 3.5446 0.0916016)
(1.93069 3.56177 0.0916016)
(1.95024 3.43111 0.0033077)
(1.89235 3.49352 0.0102315)
(1.88333 3.4771 0.0481617)
(1.87837 3.51331 0.0535282)
(1.88135 3.41412 0.0161523)
(1.88036 3.44217 0.0242728)
(1.88279 3.41698 0.0076381)
(1.87945 3.49465 0.0448234)
(1.87876 3.50446 0.049492)
(1.88024 3.46479 0.038642)
(1.92778 3.56804 0.00976336)
(1.88895 3.39326 0.0230634)
(1.90233 3.42164 0.0299908)
(1.89948 3.43966 0.0354693)
(1.90073 3.44832 0.0402436)
(1.88967 3.39304 0.0230979)
(1.88738 3.53171 0.0916016)
(1.9022 3.45672 0.0454444)
(1.91082 3.39485 0.0213764)
(1.90194 3.39296 0.0223412)
(1.91263 3.42421 0.0288924)
(1.91566 3.4057 0.024628)
(1.91169 3.4429 0.0338629)
(1.92971 3.56793 0.0183862)
(1.95091 3.42817 0.00446606)
(1.95213 3.42405 0.00647616)
(1.94979 3.44075 0.0029279)
(1.9522 3.42294 0.00603366)
(1.9522 3.42302 0.00605917)
(1.95125 3.44567 0.0124495)
(1.95104 3.44593 0.0123079)
(1.95215 3.42336 0.00623643)
(1.94943 3.4413 0.00270283)
(1.93016 3.55729 0.0117345)
(1.95122 3.4305 0.00649655)
(1.9113 3.5867 0.00286949)
(1.93816 3.47574 0.0317841)
(1.93645 3.51871 0.0429579)
(1.93778 3.47041 0.030086)
(1.94183 3.46074 0.0250871)
(1.93867 3.5082 0.0364913)
(1.88487 3.54649 0.00749099)
(1.95137 3.4351 0.0088712)
(1.90428 3.40191 0.00819087)
(1.91573 3.58365 0.0030452)
(1.94905 3.46846 0.0175724)
(1.95143 3.43519 0.00899839)
(1.95107 3.44597 0.0123725)
(1.95169 3.43462 0.00929177)
(1.95107 3.42835 0.00476491)
(1.93705 3.51288 0.00734246)
(1.93762 3.51305 0.00808048)
(1.94024 3.51409 0.0229142)
(1.93166 3.55943 0.0198399)
(1.93755 3.46773 0.0291698)
(1.93751 3.4674 0.0290658)
(1.9489 3.45868 0.00460529)
(1.90997 3.39469 0.0215412)
(1.88297 3.4168 0.00705183)
(1.87997 3.49832 0.0544295)
(1.88525 3.57149 0.00235832)
(1.88681 3.57328 0.00162542)
(1.88297 3.56557 0.00350034)
(1.88073 3.41953 0.0251067)
(1.87877 3.45002 0.0332502)
(1.94681 3.4457 0.0193374)
(1.93077 3.55853 0.016036)
(1.89144 3.57839 0.000772715)
(1.8926 3.52262 0.0916016)
(1.95008 3.43531 0.0031153)
(1.91297 3.51512 0.0916016)
(1.89599 3.5191 0.0916016)
(1.90423 3.51475 0.0916016)
(1.95031 3.43143 0.00339866)
(1.90435 3.58594 0.0916016)
(1.90099 3.58482 0.0916016)
(1.91545 3.50816 0.075296)
(1.89988 3.5164 0.0916016)
(1.90792 3.58632 0.0916016)
(1.89636 3.58157 0.0916016)
(1.88595 3.56434 0.0916016)
(1.88729 3.56836 0.0916016)
(1.889 3.57216 0.0916016)
(1.91247 3.59379 0.0138933)
(1.91816 3.58804 0.0535026)
(1.91967 3.5816 0.0916016)
(1.91492 3.59154 0.0530539)
(1.91173 3.58584 0.0916016)
(1.9109 3.58601 0.0916016)
(1.95188 3.42896 0.00762105)
(1.93737 3.51297 0.0076822)
(1.94878 3.46869 0.0174087)
(1.95177 3.42671 0.00652516)
(1.92977 3.56801 0.0186564)
)


// edges:

484
(
(15 17)
(20 17)
(12 252)
(21 12)
(23 21)
(26 25)
(253 254)
(21 27)
(27 28)
(255 256)
(257 24)
(29 258)
(259 260)
(20 16)
(22 31)
(44 45)
(45 261)
(49 262)
(47 51)
(263 264)
(264 265)
(266 49)
(65 66)
(68 67)
(70 267)
(265 268)
(269 270)
(271 272)
(273 271)
(274 75)
(78 274)
(82 80)
(84 85)
(87 275)
(276 88)
(93 277)
(278 279)
(280 281)
(84 95)
(0 88)
(84 280)
(275 91)
(279 282)
(76 95)
(283 101)
(282 276)
(0 87)
(102 103)
(52 102)
(105 93)
(93 104)
(107 44)
(102 110)
(284 157)
(285 0)
(1 111)
(112 1)
(34 286)
(287 288)
(287 289)
(290 291)
(292 28)
(57 110)
(27 25)
(1 109)
(115 54)
(119 120)
(293 285)
(17 294)
(128 129)
(123 124)
(13 295)
(79 64)
(139 79)
(95 296)
(63 54)
(297 298)
(299 297)
(58 137)
(81 141)
(295 100)
(141 300)
(301 39)
(107 43)
(43 302)
(45 107)
(303 304)
(305 306)
(289 305)
(137 307)
(92 141)
(47 307)
(144 73)
(48 139)
(57 55)
(46 64)
(64 53)
(330 66)
(65 330)
(331 67)
(332 331)
(68 332)
(115 114)
(121 120)
(336 129)
(131 336)
(338 132)
(339 132)
(338 339)
(135 134)
(135 136)
(125 19)
(263 268)
(16 15)
(17 2)
(308 270)
(15 20)
(2 309)
(253 310)
(252 21)
(22 23)
(21 22)
(12 24)
(25 4)
(4 26)
(311 5)
(5 312)
(27 12)
(313 5)
(314 29)
(29 315)
(260 254)
(24 6)
(256 30)
(30 255)
(6 257)
(309 6)
(31 4)
(259 315)
(38 16)
(316 291)
(31 23)
(7 26)
(4 7)
(317 41)
(313 7)
(7 5)
(312 318)
(44 261)
(267 319)
(320 8)
(9 49)
(262 9)
(321 50)
(319 322)
(323 3)
(8 324)
(324 54)
(59 60)
(2 294)
(61 62)
(325 326)
(50 327)
(327 3)
(328 323)
(9 266)
(329 325)
(326 65)
(66 333)
(333 68)
(3 321)
(308 269)
(322 328)
(273 272)
(83 84)
(88 87)
(90 89)
(91 92)
(92 278)
(74 34)
(95 85)
(80 92)
(99 80)
(101 102)
(44 14)
(109 283)
(317 284)
(86 93)
(277 105)
(286 32)
(94 334)
(78 75)
(28 25)
(98 73)
(111 109)
(31 27)
(122 123)
(124 119)
(130 335)
(132 329)
(120 127)
(10 337)
(281 293)
(130 10)
(81 56)
(10 132)
(118 134)
(134 122)
(156 36)
(137 63)
(138 13)
(63 320)
(340 299)
(341 301)
(298 95)
(342 303)
(97 342)
(300 343)
(8 63)
(100 334)
(343 340)
(75 344)
(304 75)
(344 78)
(78 45)
(112 56)
(137 140)
(99 141)
(302 341)
(47 137)
(63 11)
(296 85)
(11 58)
(11 137)
(47 142)
(142 48)
(160 18)
(19 160)
(18 161)
(161 19)
(162 163)
(164 165)
(166 32)
(35 162)
(163 167)
(168 169)
(37 166)
(169 170)
(165 30)
(171 38)
(172 171)
(38 20)
(30 172)
(173 36)
(20 42)
(42 17)
(174 168)
(170 164)
(167 174)
(46 175)
(176 177)
(51 48)
(52 178)
(179 53)
(180 173)
(49 181)
(42 182)
(183 179)
(184 60)
(59 185)
(178 183)
(186 42)
(175 187)
(188 36)
(20 189)
(190 191)
(182 20)
(192 188)
(181 186)
(55 52)
(193 194)
(195 196)
(36 180)
(194 176)
(191 192)
(187 190)
(197 35)
(198 197)
(199 198)
(200 193)
(201 195)
(65 145)
(196 200)
(177 199)
(67 61)
(202 203)
(189 204)
(204 202)
(203 201)
(62 59)
(60 69)
(69 70)
(205 49)
(71 205)
(48 77)
(77 206)
(206 207)
(72 208)
(207 209)
(80 81)
(81 82)
(36 74)
(88 96)
(96 90)
(85 75)
(97 83)
(91 99)
(100 94)
(103 52)
(89 106)
(108 76)
(104 210)
(101 58)
(110 103)
(54 86)
(106 108)
(111 112)
(109 101)
(211 212)
(213 47)
(47 113)
(113 77)
(114 86)
(212 104)
(52 214)
(210 111)
(214 113)
(32 94)
(208 98)
(13 72)
(209 74)
(98 13)
(97 215)
(77 51)
(112 109)
(113 216)
(82 211)
(50 118)
(217 71)
(119 121)
(122 218)
(124 125)
(125 119)
(219 220)
(71 221)
(221 222)
(17 217)
(96 223)
(224 108)
(108 225)
(226 227)
(220 224)
(216 213)
(228 226)
(126 229)
(229 128)
(222 116)
(35 228)
(225 106)
(128 131)
(230 231)
(232 230)
(133 124)
(117 232)
(233 234)
(234 117)
(223 233)
(106 96)
(227 219)
(231 235)
(235 71)
(118 135)
(136 134)
(134 236)
(237 122)
(215 83)
(36 238)
(76 89)
(64 139)
(140 110)
(90 88)
(114 54)
(81 99)
(58 112)
(142 140)
(109 105)
(239 67)
(185 62)
(240 70)
(241 184)
(69 143)
(143 241)
(135 50)
(242 243)
(244 242)
(236 136)
(243 126)
(218 237)
(131 244)
(18 125)
(123 245)
(245 133)
(127 246)
(246 126)
(240 69)
(247 143)
(143 60)
(60 247)
(121 248)
(249 133)
(121 250)
(250 158)
(248 125)
(19 249)
(61 239)
(58 109)
(115 251)
(238 138)
(144 138)
(105 114)
(251 112)
(139 142)
(64 144)
(13 14)
(18 19)
(145 146)
(34 33)
(32 35)
(36 34)
(33 37)
(37 147)
(147 33)
(39 148)
(40 148)
(14 40)
(41 149)
(39 150)
(47 48)
(56 55)
(56 57)
(56 58)
(58 57)
(53 46)
(65 146)
(40 43)
(72 151)
(72 152)
(152 151)
(153 154)
(154 155)
(155 153)
(91 80)
(97 85)
(75 97)
(14 107)
(39 79)
(93 114)
(93 115)
(73 150)
(79 48)
(32 100)
(156 34)
(73 13)
(41 157)
(121 158)
(127 126)
(129 130)
(129 159)
(159 130)
(116 81)
(116 117)
(117 81)
(123 133)
(48 39)
)

// * * * * * * * * * * * * * * * * * * * * * * * * * * * * * * * * * * * * * //


// ************************************************************************* //
