/*--------------------------------*- C++ -*----------------------------------*\
| =========                 |                                                 |
| \\      /  F ield         | OpenFOAM: The Open Source CFD Toolbox           |
|  \\    /   O peration     | Version:  2.2.x                                 |
|   \\  /    A nd           | Web:      www.OpenFOAM.org                      |
|    \\/     M anipulation  |                                                 |
\*---------------------------------------------------------------------------*/
FoamFile
{
    version     2.0;
    format      ascii;
    class       featureEdgeMesh;
    location    "constant/triSurface";
    object      foot_right.eMesh;
}
// * * * * * * * * * * * * * * * * * * * * * * * * * * * * * * * * * * * * * //


// points:

354
(
(1.64979 3.43272 0.00326252)
(1.6502 3.46402 0.0168004)
(1.7162 3.56746 0.00271094)
(1.71704 3.44252 0.00673413)
(1.71746 3.55481 0.00531101)
(1.71761 3.5612 0.00396323)
(1.67183 3.55302 0.00436294)
(1.6633 3.51281 0.0071063)
(1.6633 3.51279 0.00708485)
(1.64969 3.43143 0.00339866)
(1.64843 3.43894 0.010604)
(1.64825 3.43395 0.00914729)
(1.68427 3.58365 0.0030452)
(1.68461 3.58191 0.00147939)
(1.66368 3.51274 0.00697517)
(1.67221 3.56803 0.0097152)
(1.66922 3.55855 0.0160102)
(1.65095 3.46846 0.0175724)
(1.65027 3.4362 0.00272381)
(1.64982 3.43129 0.00322306)
(1.69329 3.59179 0.00590372)
(1.68504 3.57964 0.000107765)
(1.68825 3.58944 0.00604737)
(1.6887 3.5867 0.00286949)
(1.66839 3.55455 0.0916016)
(1.71551 3.55811 0.0916016)
(1.69577 3.51475 0.0916016)
(1.69128 3.51433 0.0916016)
(1.68306 3.51696 0.0916016)
(1.67655 3.57806 0.00790131)
(1.67775 3.57318 0.00156093)
(1.68289 3.59053 0.0145642)
(1.68373 3.58633 0.00646591)
(1.67553 3.58174 0.0163381)
(1.65944 3.51397 0.0232569)
(1.65074 3.46905 0.0178284)
(1.68824 3.58949 0.00611603)
(1.66824 3.55995 0.0203047)
(1.66834 3.55943 0.0198399)
(1.65944 3.51399 0.0232737)
(1.65029 3.44106 0.00291336)
(1.64787 3.42273 0.00606191)
(1.67712 3.57574 0.00410593)
(1.67274 3.5661 0.00574124)
(1.67655 3.57804 0.00784111)
(1.71865 3.41412 0.0161523)
(1.67049 3.55567 0.00759924)
(1.68426 3.5837 0.00309038)
(1.67712 3.57571 0.00406694)
(1.65976 3.51409 0.0229142)
(1.67317 3.56474 0.00389755)
(1.67751 3.57413 0.00233066)
(1.65287 3.47246 0.00525284)
(1.65254 3.47226 0.00541115)
(1.6506 3.45181 0.00390911)
(1.64794 3.42559 0.0068208)
(1.6688 3.55907 0.0182344)
(1.67274 3.56609 0.00571227)
(1.67101 3.55452 0.00572383)
(1.64834 3.43458 0.00921965)
(1.68769 3.58572 0.0916016)
(1.68551 3.58495 0.0916016)
(1.66295 3.51288 0.00734246)
(1.65288 3.47248 0.00527668)
(1.64806 3.42976 0.00799358)
(1.64797 3.42503 0.00656974)
(1.648 3.42838 0.00763035)
(1.64874 3.44567 0.0124495)
(1.64869 3.44498 0.0122769)
(1.64866 3.44394 0.0119904)
(1.64866 3.4432 0.0117503)
(1.64803 3.42907 0.00781262)
(1.64841 3.44082 0.0112153)
(1.64789 3.42701 0.00736225)
(1.64791 3.42563 0.00688958)
(1.64813 3.43113 0.00835145)
(1.6481 3.43045 0.00817323)
(1.648 3.43185 0.0087657)
(1.64816 3.43599 0.00992155)
(1.64821 3.43251 0.00870347)
(1.67154 3.56894 0.0916016)
(1.67159 3.55342 0.00462008)
(1.65923 3.51471 0.0236056)
(1.64988 3.43148 0.00313795)
(1.65067 3.44173 0.00271833)
(1.64787 3.42356 0.00632214)
(1.64782 3.42283 0.00602388)
(1.64982 3.43131 0.00319231)
(1.64783 3.4228 0.00603008)
(1.64817 3.43182 0.00852823)
(1.64896 3.44896 0.0133055)
(1.648 3.42694 0.0071466)
(1.64797 3.42626 0.00698447)
(1.64972 3.45899 0.0157054)
(1.64931 3.45397 0.014542)
(1.64791 3.42491 0.00665569)
(1.64855 3.4429 0.0117515)
(1.6485 3.44221 0.011574)
(1.64977 3.43076 0.00327671)
(1.65065 3.44149 0.00268233)
(1.64901 3.42681 0.00432992)
(1.69286 3.59618 0.0133927)
(1.64788 3.42563 0.00695026)
(1.64789 3.42494 0.00670171)
(1.65324 3.47269 0.00525057)
(1.65086 3.45144 0.003775)
(1.64787 3.42494 0.00674236)
(1.64806 3.42459 0.00621223)
(1.68435 3.4057 0.024628)
(1.648 3.42247 0.00613415)
(1.6941 3.58463 0.000163317)
(1.71099 3.39206 0.0098753)
(1.71404 3.54275 0.00780034)
(1.70684 3.51866 0.0106337)
(1.71934 3.42015 0.0183557)
(1.71737 3.40517 0.0154135)
(1.68034 3.39121 0.0147735)
(1.71329 3.39374 0.0146669)
(1.71209 3.39043 0.0163885)
(1.70986 3.3865 0.0176017)
(1.70986 3.38675 0.0174974)
(1.71519 3.39765 0.0153091)
(1.71149 3.58857 0.0146534)
(1.7102 3.38708 0.0173877)
(1.69465 3.38713 0.0165268)
(1.68815 3.43375 0.0307074)
(1.72084 3.43552 0.0286241)
(1.71698 3.4434 0.00681901)
(1.7075 3.49496 0.0103397)
(1.71777 3.55921 0.00480652)
(1.71515 3.54602 0.00724363)
(1.71515 3.54618 0.00731158)
(1.70736 3.52143 0.0108146)
(1.70722 3.52113 0.010628)
(1.70716 3.52098 0.0105646)
(1.68462 3.58188 0.00145638)
(1.69382 3.58707 0.00142634)
(1.71262 3.53171 0.0916016)
(1.7074 3.52262 0.0916016)
(1.70012 3.5164 0.0916016)
(1.71515 3.54033 0.0916016)
(1.70401 3.5191 0.0916016)
(1.68703 3.51512 0.0916016)
(1.67751 3.57416 0.0023489)
(1.66851 3.5593 0.0193125)
(1.67118 3.55417 0.00530839)
(1.64825 3.4332 0.00887716)
(1.67138 3.5538 0.00493586)
(1.64795 3.42435 0.00638509)
(1.64792 3.42429 0.00644684)
(1.64904 3.42746 0.00438487)
(1.6887 3.58665 0.00282228)
(1.66822 3.55454 0.0916016)
(1.64962 3.43154 0.00354981)
(1.64949 3.43167 0.00379205)
(1.64822 3.43737 0.0102972)
(1.64826 3.43806 0.0104833)
(1.6483 3.43875 0.010668)
(1.64833 3.43944 0.0108517)
(1.64837 3.44013 0.0110341)
(1.64796 3.43047 0.00837076)
(1.64798 3.43116 0.00856888)
(1.64795 3.42978 0.00817156)
(1.64846 3.44152 0.0113953)
(1.6481 3.43461 0.00954115)
(1.64807 3.43392 0.00934911)
(1.67102 3.5676 0.0916016)
(1.6684 3.55634 0.0916016)
(1.6479 3.42771 0.00756645)
(1.66834 3.54464 0.0916016)
(1.64819 3.43668 0.01011)
(1.68758 3.59381 0.0138876)
(1.64789 3.42423 0.0064894)
(1.64788 3.42632 0.00715685)
(1.64971 3.43041 0.00334466)
(1.64966 3.43007 0.00341892)
(1.64859 3.44359 0.011928)
(1.64864 3.44429 0.012103)
(1.64955 3.42943 0.0035671)
(1.64944 3.42887 0.0037092)
(1.64793 3.42909 0.00797105)
(1.64802 3.43254 0.00896132)
(1.67095 3.53324 0.0916016)
(1.64805 3.43323 0.00915587)
(1.67804 3.57211 0.00092411)
(1.67382 3.56296 0.00248241)
(1.64792 3.4284 0.00776935)
(1.64787 3.42425 0.00653327)
(1.65096 3.46844 0.0175424)
(1.68724 3.45952 0.0439306)
(1.68831 3.4429 0.0338629)
(1.68737 3.42421 0.0288924)
(1.64791 3.42277 0.00611854)
(1.64789 3.42288 0.00612867)
(1.6758 3.52384 0.0916016)
(1.67909 3.52003 0.0916016)
(1.64787 3.42331 0.00624347)
(1.69096 3.58329 5.38826e-05)
(1.68811 3.58177 2.49147e-05)
(1.68314 3.57805 0.000225782)
(1.67938 3.57398 0.000672817)
(1.65012 3.43333 0.00286698)
(1.67652 3.56953 0.00132883)
(1.67442 3.5648 0.00214374)
(1.69834 3.58375 0.000140071)
(1.66292 3.51036 0.00685322)
(1.65298 3.47132 0.00523424)
(1.673 3.55989 0.00306284)
(1.67147 3.55011 0.0048914)
(1.66877 3.53021 0.00719798)
(1.70214 3.58244 0.000231028)
(1.65977 3.51405 0.0228853)
(1.68585 3.59278 0.0140992)
(1.68455 3.50816 0.075296)
(1.68555 3.49409 0.0626366)
(1.67315 3.52819 0.0916016)
(1.64917 3.42001 0.00672018)
(1.64837 3.42164 0.00632489)
(1.66117 3.40378 0.0109136)
(1.67017 3.3966 0.0129965)
(1.7201 3.53192 0.0379453)
(1.71953 3.55917 0.030645)
(1.72032 3.476 0.0341913)
(1.72036 3.50389 0.0383856)
(1.69051 3.38794 0.0160985)
(1.65384 3.48855 0.021126)
(1.66518 3.54513 0.0223012)
(1.6722 3.57455 0.0177375)
(1.67542 3.58155 0.0163759)
(1.648 3.43411 0.00948977)
(1.66767 3.39832 0.0124757)
(1.65714 3.40806 0.00975335)
(1.64787 3.42677 0.00731897)
(1.67994 3.58779 0.0151182)
(1.66296 3.51286 0.0073055)
(1.65362 3.4126 0.0085721)
(1.65256 3.47222 0.00534666)
(1.64798 3.43366 0.00936091)
(1.71167 3.38964 0.0165921)
(1.71062 3.38775 0.0171586)
(1.71163 3.58843 0.0147235)
(1.71522 3.39773 0.0153037)
(1.70115 3.59484 0.0125065)
(1.70501 3.59323 0.0127863)
(1.71949 3.42303 0.0191839)
(1.71759 3.40621 0.015518)
(1.69706 3.59584 0.0127041)
(1.71034 3.38729 0.0173159)
(1.71001 3.38687 0.0174598)
(1.70854 3.59108 0.0135298)
(1.68485 3.50512 0.0717546)
(1.68404 3.5121 0.0810256)
(1.72028 3.5174 0.0388946)
(1.72037 3.48572 0.0360676)
(1.71979 3.54852 0.034481)
(1.71939 3.56368 0.028572)
(1.68606 3.41472 0.0272561)
(1.6879 3.45134 0.0385938)
(1.68588 3.48566 0.0577898)
(1.69329 3.59175 0.00580406)
(1.69974 3.59526 0.0125207)
(1.70611 3.59264 0.0129612)
(1.71884 3.57163 0.0242978)
(1.71534 3.58344 0.017406)
(1.69359 3.58907 0.00295436)
(1.69379 3.58731 0.0015831)
(1.71414 3.58539 0.0163178)
(1.71739 3.57862 0.0202136)
(1.66222 3.47041 0.030086)
(1.66245 3.46773 0.0291698)
(1.66184 3.47574 0.0317841)
(1.67222 3.56804 0.00976336)
(1.66355 3.51871 0.0429579)
(1.65817 3.46074 0.0250871)
(1.66133 3.5082 0.0364913)
(1.71964 3.44217 0.0242728)
(1.66249 3.4674 0.0290658)
(1.65165 3.46912 0.0168934)
(1.65146 3.46891 0.0171802)
(1.66002 3.51415 0.0225028)
(1.6481 3.42651 0.00680911)
(1.64817 3.42724 0.0069238)
(1.64793 3.42632 0.0070765)
(1.64813 3.4353 0.00973189)
(1.64964 3.43078 0.00348163)
(1.64813 3.42593 0.0064894)
(1.64804 3.42514 0.00644171)
(1.64781 3.42291 0.0060283)
(1.64888 3.42764 0.00467014)
(1.6497 3.45749 0.0153037)
(1.64918 3.4518 0.0139951)
(1.64785 3.42276 0.0060426)
(1.65 3.45098 0.00439346)
(1.65183 3.47163 0.00665677)
(1.65034 3.44101 0.00281918)
(1.65057 3.4413 0.00270283)
(1.64976 3.43111 0.0033077)
(1.65 3.43522 0.00296354)
(1.65021 3.44075 0.0029279)
(1.66984 3.55729 0.0117345)
(1.68372 3.58637 0.00653303)
(1.65088 3.45211 0.0038631)
(1.67347 3.56389 0.00310016)
(1.65076 3.45195 0.00384677)
(1.64831 3.42871 0.00713861)
(1.64839 3.42945 0.00723708)
(1.65035 3.45151 0.00401795)
(1.71564 3.40095 0.0132565)
(1.6949 3.51085 0.0834663)
(1.69287 3.51278 0.0873327)
(1.71009 3.38966 0.0205189)
(1.72055 3.49465 0.0448234)
(1.72124 3.50446 0.049492)
(1.71976 3.46479 0.038642)
(1.70765 3.49352 0.0102315)
(1.71721 3.41698 0.0076381)
(1.71667 3.4771 0.0481617)
(1.72163 3.51331 0.0535282)
(1.71513 3.54649 0.00749099)
(1.64893 3.44597 0.0123725)
(1.65319 3.4457 0.0193374)
(1.64992 3.43531 0.0031153)
(1.64954 3.43018 0.00361299)
(1.66023 3.5142 0.0220449)
(1.68579 3.58506 0.0916016)
(1.67949 3.58097 0.0916016)
(1.67609 3.57718 0.0916016)
(1.66175 3.51339 0.0101486)
(1.69208 3.58632 0.0916016)
(1.68987 3.58617 0.0916016)
(1.66202 3.51322 0.00903666)
(1.64782 3.42317 0.00613403)
(1.6478 3.42299 0.00605106)
(1.64987 3.46042 0.0160136)
(1.66923 3.55853 0.016036)
(1.68342 3.5839 0.0916016)
(1.71703 3.4168 0.00705183)
(1.71319 3.57328 0.00162542)
(1.70856 3.57839 0.000772715)
(1.71425 3.39604 0.0143667)
(1.71105 3.39326 0.0230634)
(1.71033 3.38976 0.0204953)
(1.71011 3.57415 0.0916016)
(1.70513 3.58053 0.0916016)
(1.71126 3.3934 0.0230171)
(1.71353 3.56652 0.0916016)
(1.69901 3.58482 0.0916016)
(1.69601 3.51105 0.0834937)
(1.71927 3.41953 0.0251067)
(1.72123 3.45002 0.0332502)
(1.72003 3.49832 0.0544295)
(1.71703 3.56557 0.00350034)
(1.71475 3.57149 0.00235832)
(1.69565 3.58594 0.0916016)
)


// edges:

495
(
(19 18)
(268 269)
(270 268)
(15 271)
(270 272)
(22 32)
(273 274)
(41 19)
(45 275)
(276 269)
(277 278)
(279 49)
(32 48)
(280 281)
(59 72)
(282 73)
(77 71)
(283 78)
(79 283)
(284 40)
(54 83)
(83 84)
(56 16)
(31 36)
(285 286)
(287 86)
(288 41)
(289 290)
(88 291)
(291 41)
(69 75)
(10 69)
(91 285)
(92 75)
(286 55)
(94 90)
(290 94)
(59 97)
(97 96)
(76 66)
(292 293)
(98 294)
(19 295)
(296 297)
(297 298)
(51 13)
(86 100)
(16 299)
(300 32)
(301 105)
(302 30)
(102 74)
(52 104)
(84 99)
(99 303)
(107 65)
(304 305)
(36 32)
(305 79)
(104 301)
(105 84)
(53 306)
(120 111)
(117 307)
(42 57)
(50 302)
(308 309)
(309 27)
(125 108)
(310 124)
(126 311)
(312 313)
(128 314)
(112 130)
(127 315)
(316 317)
(131 129)
(118 120)
(132 133)
(133 134)
(128 113)
(134 113)
(132 318)
(133 131)
(61 324)
(324 60)
(67 90)
(8 6)
(284 9)
(14 6)
(17 319)
(34 17)
(274 320)
(321 0)
(0 40)
(40 321)
(322 41)
(29 42)
(271 43)
(9 0)
(35 1)
(56 323)
(278 279)
(62 53)
(325 326)
(281 64)
(327 46)
(65 282)
(71 280)
(328 329)
(293 330)
(10 59)
(81 7)
(40 18)
(18 54)
(54 40)
(38 82)
(82 39)
(331 332)
(15 37)
(84 54)
(323 277)
(85 331)
(87 18)
(332 287)
(319 289)
(83 18)
(87 83)
(330 327)
(10 75)
(92 69)
(1 93)
(93 94)
(1 333)
(92 66)
(70 67)
(295 98)
(99 19)
(298 296)
(76 304)
(10 97)
(87 84)
(299 334)
(326 80)
(335 325)
(300 47)
(334 56)
(104 63)
(14 104)
(303 84)
(99 87)
(67 17)
(111 336)
(306 292)
(336 3)
(314 113)
(113 112)
(5 2)
(2 337)
(4 5)
(337 338)
(45 115)
(114 45)
(117 118)
(339 117)
(329 60)
(61 335)
(111 119)
(114 275)
(43 50)
(340 341)
(342 343)
(119 344)
(25 345)
(27 308)
(345 342)
(343 346)
(119 341)
(347 26)
(126 348)
(349 126)
(350 316)
(313 317)
(3 127)
(127 128)
(129 5)
(4 129)
(130 4)
(312 349)
(315 3)
(131 4)
(351 5)
(307 339)
(2 352)
(112 134)
(134 130)
(128 134)
(2 351)
(346 353)
(353 328)
(133 130)
(131 132)
(7 8)
(10 11)
(151 12)
(20 22)
(23 151)
(152 24)
(24 25)
(31 22)
(32 31)
(33 31)
(36 20)
(153 9)
(154 153)
(49 39)
(51 48)
(155 156)
(52 53)
(55 35)
(9 154)
(156 157)
(44 15)
(53 63)
(158 159)
(160 161)
(162 160)
(72 163)
(164 165)
(166 167)
(73 168)
(24 169)
(161 77)
(170 155)
(167 24)
(33 32)
(171 31)
(35 82)
(82 34)
(12 48)
(8 62)
(172 85)
(89 10)
(90 70)
(7 62)
(11 89)
(90 91)
(49 34)
(93 55)
(94 92)
(92 93)
(41 87)
(95 172)
(55 92)
(55 95)
(64 75)
(73 173)
(89 76)
(94 55)
(55 90)
(157 158)
(98 174)
(174 175)
(176 177)
(19 98)
(175 178)
(143 51)
(96 176)
(20 101)
(101 171)
(103 173)
(179 100)
(180 162)
(150 88)
(178 179)
(181 77)
(35 96)
(69 35)
(22 36)
(169 182)
(183 181)
(184 185)
(168 186)
(186 180)
(97 69)
(106 187)
(13 21)
(185 6)
(102 106)
(21 184)
(74 106)
(165 183)
(148 107)
(35 78)
(10 35)
(17 188)
(189 190)
(190 191)
(192 193)
(109 192)
(177 68)
(194 195)
(163 97)
(78 170)
(191 108)
(159 72)
(85 107)
(193 196)
(197 198)
(198 199)
(199 200)
(105 201)
(200 202)
(110 197)
(201 83)
(202 203)
(8 81)
(204 110)
(205 206)
(203 207)
(207 208)
(208 209)
(210 204)
(209 205)
(206 105)
(67 35)
(110 21)
(136 110)
(187 85)
(211 39)
(100 41)
(212 101)
(213 214)
(215 194)
(115 114)
(216 217)
(218 219)
(220 221)
(219 116)
(182 215)
(222 223)
(116 224)
(225 226)
(80 166)
(119 120)
(83 41)
(227 228)
(229 225)
(41 109)
(230 231)
(196 232)
(214 189)
(223 220)
(121 115)
(228 233)
(116 230)
(217 109)
(231 216)
(114 222)
(234 8)
(235 218)
(224 119)
(164 10)
(51 42)
(63 236)
(236 52)
(28 213)
(195 28)
(7 234)
(233 212)
(232 237)
(34 211)
(109 235)
(237 229)
(226 227)
(188 34)
(238 239)
(122 240)
(241 121)
(121 238)
(242 243)
(244 245)
(246 242)
(247 123)
(239 247)
(123 248)
(249 122)
(250 251)
(248 119)
(252 253)
(245 241)
(253 244)
(254 252)
(255 254)
(108 256)
(256 125)
(125 257)
(257 258)
(119 124)
(101 259)
(260 101)
(261 260)
(120 123)
(123 118)
(118 121)
(262 263)
(264 265)
(265 110)
(259 264)
(110 210)
(122 261)
(221 262)
(263 122)
(240 266)
(124 116)
(258 250)
(251 28)
(267 255)
(101 246)
(243 249)
(266 267)
(51 135)
(152 80)
(12 13)
(8 14)
(135 136)
(23 20)
(22 23)
(26 27)
(137 138)
(139 26)
(25 140)
(140 137)
(138 141)
(142 28)
(27 142)
(141 139)
(29 15)
(21 30)
(17 35)
(38 39)
(37 38)
(33 29)
(44 42)
(29 44)
(43 46)
(47 48)
(48 42)
(143 12)
(12 47)
(43 15)
(12 23)
(50 51)
(144 56)
(43 57)
(48 44)
(38 144)
(58 145)
(47 22)
(32 47)
(60 61)
(50 57)
(58 50)
(146 11)
(145 147)
(69 67)
(67 68)
(68 69)
(46 58)
(69 70)
(6 81)
(37 16)
(37 56)
(19 87)
(65 148)
(63 8)
(86 88)
(85 149)
(75 89)
(91 92)
(147 7)
(89 79)
(79 11)
(69 90)
(149 95)
(79 146)
(95 65)
(66 71)
(71 64)
(76 64)
(30 51)
(150 86)
(102 103)
(74 103)
(103 106)
)

// * * * * * * * * * * * * * * * * * * * * * * * * * * * * * * * * * * * * * //


// ************************************************************************* //
