/*--------------------------------*- C++ -*----------------------------------*\
| =========                 |                                                 |
| \\      /  F ield         | OpenFOAM: The Open Source CFD Toolbox           |
|  \\    /   O peration     | Version:  2.2.x                                 |
|   \\  /    A nd           | Web:      www.OpenFOAM.org                      |
|    \\/     M anipulation  |                                                 |
\*---------------------------------------------------------------------------*/
FoamFile
{
    version     2.0;
    format      ascii;
    class       featureEdgeMesh;
    location    "constant/triSurface";
    object      forearm_right_back.eMesh;
}
// * * * * * * * * * * * * * * * * * * * * * * * * * * * * * * * * * * * * * //


// points:

32
(
(1.59678 3.59734 1.09674)
(1.54668 3.5454 0.867934)
(1.59238 3.55705 0.865396)
(1.52733 3.58778 1.09733)
(1.58433 3.57143 0.86226)
(1.58386 3.62908 1.09475)
(1.59255 3.55709 0.865386)
(1.58878 3.56615 0.86341)
(1.59181 3.55976 0.864805)
(1.58447 3.5713 0.862289)
(1.58806 3.56722 0.863178)
(1.5908 3.5624 0.864229)
(1.56181 3.63874 1.09414)
(1.57003 3.63756 1.09421)
(1.54653 3.55405 0.866049)
(1.54898 3.56274 0.864153)
(1.55404 3.57021 0.862526)
(1.57523 3.57647 0.86116)
(1.56981 3.57719 0.861004)
(1.55737 3.57311 0.861894)
(1.57743 3.63423 1.09442)
(1.58915 3.62243 1.09516)
(1.56115 3.5753 0.861415)
(1.56532 3.5767 0.86111)
(1.58016 3.57445 0.861602)
(1.54892 3.63574 1.09433)
(1.55511 3.63796 1.09419)
(1.59317 3.61459 1.09565)
(1.53096 3.61583 1.09558)
(1.52723 3.602 1.09644)
(1.53842 3.62766 1.09483)
(1.54333 3.63225 1.09455)
)


// edges:

37
(
(12 13)
(14 1)
(15 14)
(16 15)
(17 18)
(2 1)
(1 3)
(19 16)
(20 5)
(5 21)
(13 20)
(22 19)
(23 22)
(24 17)
(25 26)
(18 23)
(0 6)
(3 0)
(27 0)
(21 27)
(26 12)
(4 24)
(28 29)
(30 28)
(29 3)
(31 30)
(31 25)
(3 2)
(7 4)
(6 3)
(2 8)
(8 7)
(5 9)
(10 11)
(4 5)
(9 10)
(11 6)
)

// * * * * * * * * * * * * * * * * * * * * * * * * * * * * * * * * * * * * * //


// ************************************************************************* //
