/*--------------------------------*- C++ -*----------------------------------*\
| =========                 |                                                 |
| \\      /  F ield         | OpenFOAM: The Open Source CFD Toolbox           |
|  \\    /   O peration     | Version:  2.2.x                                 |
|   \\  /    A nd           | Web:      www.OpenFOAM.org                      |
|    \\/     M anipulation  |                                                 |
\*---------------------------------------------------------------------------*/
FoamFile
{
    version     2.0;
    format      ascii;
    class       featureEdgeMesh;
    location    "constant/triSurface";
    object      forearm_left_front.eMesh;
}
// * * * * * * * * * * * * * * * * * * * * * * * * * * * * * * * * * * * * * //


// points:

32
(
(2.03434 3.55217 1.09957)
(2.04256 3.55224 1.09956)
(2.05018 3.55453 1.09942)
(2.00678 3.5528 0.866322)
(2.02654 3.55439 1.09943)
(2.01952 3.55863 1.09916)
(2.00873 3.57187 1.09833)
(2.01351 3.56456 1.09879)
(2.00361 3.58855 1.09729)
(2.00545 3.57997 1.09783)
(2.05612 3.55802 1.0992)
(2.07266 3.58767 1.09734)
(2.06122 3.5626 1.09891)
(2.05332 3.5454 0.867934)
(2.06879 3.57426 1.09818)
(2.02997 3.52345 0.87272)
(2.02624 3.52383 0.872638)
(2.03403 3.52382 0.87264)
(2.03801 3.52498 0.872387)
(2.00699 3.54589 0.867828)
(2.02237 3.52498 0.872387)
(2.01664 3.52835 0.871652)
(2.01204 3.53325 0.870585)
(2.00875 3.53927 0.869271)
(2.04198 3.52708 0.87193)
(2.05065 3.5371 0.869745)
(2.04544 3.52988 0.871319)
(1.93178 3.55436 0.0916016)
(1.93161 3.55431 0.0916016)
(1.93165 3.54566 0.0916016)
(1.93182 3.54692 0.0916016)
(2.0049 3.57168 0.981986)
)


// edges:

44
(
(3 31)
(31 8)
(11 13)
(15 16)
(17 15)
(18 17)
(19 3)
(16 20)
(20 21)
(21 22)
(23 19)
(22 23)
(24 18)
(25 26)
(26 24)
(13 25)
(13 3)
(27 28)
(28 29)
(29 30)
(30 27)
(1 2)
(0 1)
(4 0)
(5 4)
(6 7)
(7 5)
(8 9)
(9 6)
(2 10)
(14 11)
(10 12)
(12 14)
(8 11)
(9 11)
(6 11)
(7 11)
(5 11)
(4 11)
(0 11)
(1 11)
(2 11)
(10 11)
(12 11)
)

// * * * * * * * * * * * * * * * * * * * * * * * * * * * * * * * * * * * * * //


// ************************************************************************* //
