/*--------------------------------*- C++ -*----------------------------------*\
| =========                 |                                                 |
| \\      /  F ield         | OpenFOAM: The Open Source CFD Toolbox           |
|  \\    /   O peration     | Version:  2.2.x                                 |
|   \\  /    A nd           | Web:      www.OpenFOAM.org                      |
|    \\/     M anipulation  |                                                 |
\*---------------------------------------------------------------------------*/
FoamFile
{
    version     2.0;
    format      ascii;
    class       featureEdgeMesh;
    location    "constant/triSurface";
    object      forearm_right_front.eMesh;
}
// * * * * * * * * * * * * * * * * * * * * * * * * * * * * * * * * * * * * * //


// points:

38
(
(1.57763 3.52499 0.872384)
(1.59678 3.59734 1.09674)
(1.59255 3.55709 0.865386)
(1.52733 3.58778 1.09733)
(1.54668 3.5454 0.867934)
(1.59308 3.54637 0.867724)
(1.59238 3.55705 0.865396)
(1.59199 3.54141 0.868804)
(1.58991 3.5364 0.869898)
(1.5782 3.52524 0.872331)
(1.5868 3.53179 0.870903)
(1.58285 3.528 0.871729)
(1.58351 3.52852 0.871615)
(1.58822 3.53365 0.870498)
(1.59146 3.53986 0.869144)
(1.93178 3.55436 0.0916016)
(1.93161 3.55431 0.0916016)
(1.93165 3.54566 0.0916016)
(1.93182 3.54692 0.0916016)
(1.54982 3.55453 1.09942)
(1.55744 3.55224 1.09956)
(1.56566 3.55217 1.09957)
(1.57346 3.55439 1.09943)
(1.59311 3.54658 0.867679)
(1.55802 3.52708 0.87193)
(1.55456 3.52988 0.871319)
(1.54935 3.5371 0.869745)
(1.54392 3.55799 1.0992)
(1.57299 3.5237 0.872666)
(1.56743 3.52359 0.87269)
(1.58048 3.55863 1.09916)
(1.58649 3.56456 1.09879)
(1.59126 3.57187 1.09833)
(1.56199 3.52498 0.872387)
(1.59455 3.57997 1.09783)
(1.53126 3.57414 1.09819)
(1.59565 3.58854 1.09729)
(1.53884 3.56252 1.09892)
)


// edges:

42
(
(1 3)
(4 6)
(19 20)
(20 21)
(21 22)
(2 23)
(24 25)
(25 26)
(26 4)
(4 3)
(27 19)
(0 28)
(28 29)
(22 30)
(30 31)
(31 32)
(29 33)
(23 5)
(32 34)
(3 35)
(34 36)
(36 1)
(37 27)
(35 37)
(33 24)
(7 8)
(9 0)
(8 10)
(10 11)
(11 9)
(1 2)
(5 7)
(12 0)
(13 12)
(14 13)
(5 14)
(6 2)
(1 6)
(15 16)
(16 17)
(17 18)
(18 15)
)

// * * * * * * * * * * * * * * * * * * * * * * * * * * * * * * * * * * * * * //


// ************************************************************************* //
