/*--------------------------------*- C++ -*----------------------------------*\
| =========                 |                                                 |
| \\      /  F ield         | OpenFOAM: The Open Source CFD Toolbox           |
|  \\    /   O peration     | Version:  2.2.x                                 |
|   \\  /    A nd           | Web:      www.OpenFOAM.org                      |
|    \\/     M anipulation  |                                                 |
\*---------------------------------------------------------------------------*/
FoamFile
{
    version     2.0;
    format      ascii;
    class       featureEdgeMesh;
    location    "constant/triSurface";
    object      forearm_left_back.eMesh;
}
// * * * * * * * * * * * * * * * * * * * * * * * * * * * * * * * * * * * * * //


// points:

35
(
(2.00361 3.58855 1.09729)
(2.00678 3.5528 0.866322)
(2.05332 3.5454 0.867934)
(2.07266 3.58767 1.09734)
(1.93178 3.55436 0.0916016)
(1.93161 3.55431 0.0916016)
(1.93165 3.54566 0.0916016)
(1.93182 3.54692 0.0916016)
(2.00428 3.60607 1.09619)
(2.0049 3.57168 0.981986)
(2.02234 3.57567 0.861334)
(2.02581 3.57672 0.861106)
(2.02257 3.63423 1.09442)
(2.01614 3.62908 1.09475)
(2.01566 3.57144 0.862257)
(2.01913 3.57403 0.861692)
(2.01112 3.56604 0.863435)
(2.00816 3.55967 0.864823)
(2.03019 3.57719 0.861004)
(2.02997 3.63756 1.09421)
(2.03819 3.63874 1.09414)
(2.01084 3.62243 1.09516)
(2.00683 3.61459 1.09565)
(2.06175 3.62746 1.09485)
(2.05682 3.63213 1.09455)
(2.04496 3.63794 1.09419)
(2.03468 3.5767 0.86111)
(2.03885 3.5753 0.861415)
(2.0512 3.63568 1.09433)
(2.04263 3.57311 0.861894)
(2.04596 3.57021 0.862526)
(2.07283 3.60162 1.09647)
(2.05347 3.55405 0.866049)
(2.06918 3.61549 1.0956)
(2.05102 3.56274 0.864153)
)


// edges:

37
(
(0 3)
(8 0)
(2 1)
(0 9)
(10 11)
(12 13)
(14 15)
(16 14)
(15 10)
(17 16)
(11 18)
(19 12)
(20 19)
(13 21)
(21 22)
(9 1)
(1 17)
(22 8)
(23 24)
(25 20)
(26 27)
(28 25)
(29 30)
(27 29)
(24 28)
(18 26)
(3 31)
(2 3)
(32 2)
(31 33)
(34 32)
(33 23)
(30 34)
(4 5)
(5 6)
(6 7)
(7 4)
)

// * * * * * * * * * * * * * * * * * * * * * * * * * * * * * * * * * * * * * //


// ************************************************************************* //
