/*--------------------------------*- C++ -*----------------------------------*\
| =========                 |                                                 |
| \\      /  F ield         | OpenFOAM: The Open Source CFD Toolbox           |
|  \\    /   O peration     | Version:  2.2.x                                 |
|   \\  /    A nd           | Web:      www.OpenFOAM.org                      |
|    \\/     M anipulation  |                                                 |
\*---------------------------------------------------------------------------*/
FoamFile
{
    version     2.0;
    format      ascii;
    class       featureEdgeMesh;
    location    "constant/triSurface";
    object      hand_left.eMesh;
}
// * * * * * * * * * * * * * * * * * * * * * * * * * * * * * * * * * * * * * //


// points:

94
(
(2.02997 3.52345 0.87272)
(2.03403 3.52382 0.87264)
(2.04419 3.49813 0.771656)
(2.01276 3.47739 0.682435)
(2.01494 3.47419 0.678053)
(2.04198 3.52708 0.87193)
(2.04544 3.52988 0.871319)
(2.05065 3.5371 0.869745)
(2.02042 3.55051 0.729097)
(2.01566 3.57144 0.862257)
(2.0055 3.53416 0.690616)
(2.01703 3.5436 0.707688)
(2.02581 3.57672 0.861106)
(2.02761 3.55934 0.792571)
(2.02868 3.55326 0.72282)
(2.03019 3.57719 0.861004)
(2.01066 3.49561 0.660842)
(2.00592 3.53567 0.686697)
(2.01647 3.53703 0.704114)
(2.01644 3.52983 0.701314)
(2.01823 3.55315 0.75172)
(2.01628 3.55393 0.796852)
(2.01979 3.56093 0.830109)
(2.02966 3.5569 0.745711)
(2.02888 3.56461 0.827645)
(2.01524 3.55267 0.774293)
(2.02841 3.56206 0.816043)
(2.00871 3.50446 0.661911)
(2.00703 3.51307 0.665425)
(2.00592 3.52114 0.670635)
(2.00549 3.52892 0.677797)
(2.02798 3.55831 0.769137)
(2.00561 3.52507 0.673935)
(2.0064 3.51715 0.667813)
(2.00968 3.50004 0.661004)
(2.00781 3.50884 0.663449)
(2.01934 3.56409 0.841028)
(2.00571 3.53489 0.688714)
(2.01934 3.55815 0.819072)
(1.93178 3.55436 0.0916016)
(1.93161 3.55431 0.0916016)
(1.93165 3.54566 0.0916016)
(1.93182 3.54692 0.0916016)
(2.02658 3.55808 0.769907)
(2.02698 3.56215 0.816653)
(2.0239 3.56729 0.839825)
(2.03039 3.55591 0.766801)
(2.0301 3.54591 0.716353)
(2.03665 3.50192 0.77353)
(2.03814 3.47888 0.724251)
(2.02858 3.47392 0.700456)
(2.00787 3.50694 0.677982)
(2.00571 3.52129 0.68253)
(2.02306 3.48406 0.704173)
(2.01382 3.47584 0.680308)
(2.02624 3.52383 0.872638)
(2.02885 3.49158 0.727274)
(2.01112 3.56604 0.863435)
(2.00816 3.55967 0.864823)
(2.01086 3.49196 0.677721)
(2.03801 3.52498 0.872387)
(2.02237 3.52498 0.872387)
(2.01204 3.53325 0.870585)
(2.01664 3.52835 0.871652)
(2.00875 3.53927 0.869271)
(2.01227 3.53908 0.698397)
(2.0197 3.54752 0.718118)
(2.00678 3.5528 0.866322)
(2.01352 3.53496 0.770877)
(2.01196 3.5421 0.819189)
(2.00699 3.54589 0.867828)
(2.01244 3.54125 0.771687)
(2.01297 3.54783 0.818903)
(2.01411 3.5411 0.693447)
(2.02076 3.54595 0.701946)
(2.02234 3.57567 0.861334)
(2.01913 3.57403 0.861692)
(2.02568 3.56195 0.81693)
(2.02569 3.55006 0.711864)
(2.01165 3.49116 0.661526)
(2.01258 3.48677 0.663136)
(2.03468 3.5767 0.86111)
(2.0141 3.47919 0.668941)
(2.01462 3.4763 0.673064)
(2.01341 3.48273 0.665626)
(2.03277 3.55312 0.765038)
(2.04598 3.50055 0.768797)
(2.04793 3.50757 0.764066)
(2.03885 3.5753 0.861415)
(2.05347 3.55405 0.866049)
(2.05102 3.56274 0.864153)
(2.05332 3.5454 0.867934)
(2.04263 3.57311 0.861894)
(2.04596 3.57021 0.862526)
)


// edges:

102
(
(13 43)
(44 13)
(12 45)
(46 47)
(48 0)
(0 1)
(2 49)
(49 50)
(51 52)
(3 53)
(54 3)
(55 0)
(53 56)
(57 58)
(50 4)
(4 54)
(59 51)
(1 2)
(1 60)
(61 55)
(62 63)
(64 62)
(63 61)
(52 10)
(10 65)
(3 59)
(65 11)
(9 57)
(11 66)
(66 8)
(58 67)
(68 69)
(70 64)
(71 72)
(67 70)
(73 74)
(75 76)
(12 77)
(78 14)
(12 75)
(44 43)
(74 78)
(79 80)
(81 15)
(82 83)
(2 5)
(84 82)
(16 79)
(47 85)
(6 86)
(5 6)
(80 84)
(60 5)
(83 4)
(73 17)
(7 87)
(6 7)
(46 14)
(88 81)
(89 90)
(91 89)
(92 88)
(93 92)
(90 93)
(7 91)
(76 9)
(15 12)
(8 20)
(21 22)
(22 9)
(11 19)
(20 21)
(23 13)
(13 24)
(14 23)
(25 8)
(15 26)
(27 16)
(28 27)
(29 28)
(17 30)
(26 31)
(31 14)
(30 29)
(17 10)
(32 17)
(33 32)
(34 35)
(9 36)
(10 37)
(36 38)
(35 33)
(37 17)
(16 34)
(24 15)
(38 25)
(39 40)
(40 41)
(41 42)
(42 39)
(18 11)
(19 18)
)

// * * * * * * * * * * * * * * * * * * * * * * * * * * * * * * * * * * * * * //


// ************************************************************************* //
