/*--------------------------------*- C++ -*----------------------------------*\
| =========                 |                                                 |
| \\      /  F ield         | OpenFOAM: The Open Source CFD Toolbox           |
|  \\    /   O peration     | Version:  2.2.x                                 |
|   \\  /    A nd           | Web:      www.OpenFOAM.org                      |
|    \\/     M anipulation  |                                                 |
\*---------------------------------------------------------------------------*/
FoamFile
{
    version     2.0;
    format      ascii;
    class       featureEdgeMesh;
    location    "constant/triSurface";
    object      head.eMesh;
}
// * * * * * * * * * * * * * * * * * * * * * * * * * * * * * * * * * * * * * //


// points:

177
(
(1.81062 3.56086 1.48065)
(1.85183 3.5668 1.58947)
(1.74802 3.56678 1.59145)
(1.74905 3.56767 1.58943)
(1.74887 3.56745 1.59012)
(1.74877 3.56736 1.58982)
(1.74872 3.56735 1.59085)
(1.74888 3.56746 1.59015)
(1.8 3.55884 1.47909)
(1.8416 3.56086 1.53064)
(1.85096 3.56767 1.58943)
(1.85175 3.56669 1.59583)
(1.85424 3.5644 1.59006)
(1.86183 3.55228 1.58729)
(1.86863 3.49615 1.58598)
(1.85123 3.56736 1.58982)
(1.85367 3.55338 1.62339)
(1.85137 3.56727 1.59268)
(1.85113 3.56745 1.59012)
(1.85108 3.56747 1.59022)
(1.86044 3.52048 1.63582)
(1.85158 3.56708 1.5901)
(1.85157 3.5671 1.59012)
(1.85198 3.56678 1.59145)
(1.85128 3.56735 1.59085)
(1.85112 3.56746 1.59015)
(1.76066 3.49859 1.47433)
(1.76095 3.54661 1.48091)
(1.7584 3.56086 1.53064)
(1.83934 3.49859 1.47433)
(1.77854 3.55933 1.48153)
(1.85847 3.46082 1.53561)
(1.85649 3.4824 1.51108)
(1.84962 3.46728 1.49698)
(1.86119 3.45954 1.57537)
(1.75462 3.4986 1.50233)
(1.74888 3.47761 1.49944)
(1.75038 3.46728 1.49698)
(1.75053 3.47848 1.49727)
(1.76925 3.4899 1.47339)
(1.84514 3.4328 1.61168)
(1.81251 3.42311 1.62759)
(1.8 3.42137 1.62687)
(1.84947 3.47848 1.49727)
(1.85113 3.47761 1.49944)
(1.83075 3.4899 1.47339)
(1.85371 3.4752 1.50335)
(1.73881 3.45954 1.57537)
(1.74066 3.46058 1.54041)
(1.8593 3.46054 1.54042)
(1.8592 3.46054 1.54038)
(1.8 3.47805 1.49834)
(1.74886 3.56744 1.59009)
(1.74885 3.56743 1.59006)
(1.76868 3.5544 1.48162)
(1.85929 3.46054 1.54038)
(1.74718 3.5659 1.58914)
(1.74812 3.56676 1.58931)
(1.74885 3.56743 1.5911)
(1.74869 3.56731 1.59278)
(1.74837 3.56675 1.59602)
(1.74546 3.56406 1.58885)
(1.7424 3.56011 1.58828)
(1.74876 3.56736 1.58977)
(1.74892 3.56747 1.59022)
(1.7488 3.56739 1.59102)
(1.74781 3.56506 1.60236)
(1.74848 3.56714 1.59026)
(1.73068 3.51449 1.58644)
(1.73198 3.5236 1.58588)
(1.73777 3.55132 1.58718)
(1.73364 3.53269 1.58557)
(1.74843 3.5671 1.59012)
(1.74845 3.56711 1.59017)
(1.74847 3.56712 1.59021)
(1.74877 3.56737 1.59095)
(1.74863 3.56727 1.59268)
(1.74853 3.56721 1.5925)
(1.74875 3.56736 1.5909)
(1.83215 3.56698 1.53007)
(1.82195 3.57195 1.53039)
(1.84855 3.54545 1.53058)
(1.85372 3.5296 1.53229)
(1.85124 3.56736 1.58977)
(1.8512 3.56739 1.59102)
(1.86557 3.49659 1.62389)
(1.85962 3.49704 1.63722)
(1.85384 3.49773 1.645)
(1.85152 3.56714 1.59026)
(1.85153 3.56712 1.59021)
(1.85155 3.56711 1.59017)
(1.85147 3.56721 1.5925)
(1.85123 3.56737 1.59095)
(1.85125 3.56736 1.5909)
(1.75483 3.49862 1.50167)
(1.74415 3.49699 1.52743)
(1.74864 3.53757 1.53124)
(1.74455 3.52145 1.53305)
(1.82909 3.49868 1.66258)
(1.8 3.5 1.66862)
(1.84538 3.4986 1.50233)
(1.75145 3.54545 1.53058)
(1.74628 3.5296 1.53229)
(1.7679 3.567 1.53008)
(1.77808 3.57196 1.5304)
(1.86532 3.47759 1.58093)
(1.85934 3.46058 1.54041)
(1.76485 3.49403 1.47397)
(1.75837 3.49881 1.48813)
(1.86304 3.49672 1.63072)
(1.8673 3.49664 1.61638)
(1.85537 3.49753 1.6432)
(1.8149 3.49958 1.66646)
(1.84163 3.49881 1.48813)
(1.73654 3.46868 1.57828)
(1.73456 3.47781 1.58101)
(1.73284 3.48696 1.58357)
(1.73137 3.49615 1.58598)
(1.93178 3.55436 0.0916016)
(1.93161 3.55431 0.0916016)
(1.93165 3.54566 0.0916016)
(1.93182 3.54692 0.0916016)
(1.85907 3.46054 1.54042)
(1.84857 3.4608 1.53602)
(1.85134 3.56724 1.58955)
(1.85178 3.56686 1.58962)
(1.85118 3.5674 1.59104)
(1.85991 3.50926 1.63716)
(1.85559 3.55161 1.62193)
(1.85214 3.56531 1.60169)
(1.85159 3.56707 1.59007)
(1.76133 3.49231 1.48513)
(1.86481 3.4813 1.61547)
(1.82146 3.55933 1.48153)
(1.83806 3.55103 1.50666)
(1.83132 3.5544 1.48162)
(1.83905 3.54661 1.48091)
(1.85116 3.56744 1.59108)
(1.85729 3.56058 1.58835)
(1.85848 3.54209 1.62746)
(1.86035 3.53178 1.63276)
(1.85265 3.5661 1.58975)
(1.85603 3.53432 1.63871)
(1.85472 3.54474 1.63218)
(1.75582 3.52283 1.47767)
(1.75719 3.53507 1.47934)
(1.75698 3.51048 1.47597)
(1.76194 3.55103 1.50666)
(1.84302 3.51048 1.47597)
(1.84281 3.53507 1.47934)
(1.84418 3.52283 1.47767)
(1.75322 3.56801 1.55943)
(1.78938 3.56086 1.48065)
(1.75221 3.47937 1.49534)
(1.75914 3.48285 1.48874)
(1.76523 3.48619 1.48194)
(1.7676 3.48802 1.47792)
(1.85645 3.44952 1.59688)
(1.86723 3.48767 1.6002)
(1.84913 3.4369 1.60897)
(1.85219 3.44122 1.60543)
(1.83594 3.43308 1.62489)
(1.82438 3.4279 1.62697)
(1.84086 3.48285 1.48874)
(1.84779 3.47937 1.49534)
(1.8324 3.48802 1.47792)
(1.83477 3.48619 1.48194)
(1.83515 3.49403 1.47397)
(1.74607 3.44666 1.6129)
(1.74355 3.44952 1.59688)
(1.74921 3.44261 1.61751)
(1.74537 3.44546 1.591)
(1.75332 3.43884 1.6212)
(1.74153 3.46082 1.53561)
(1.77562 3.4279 1.62697)
(1.76406 3.43308 1.62489)
(1.78749 3.42311 1.62759)
)


// edges:

233
(
(11 10)
(124 10)
(125 124)
(126 19)
(13 10)
(127 16)
(20 128)
(12 10)
(129 10)
(22 130)
(23 22)
(35 131)
(14 132)
(33 46)
(50 48)
(27 8)
(45 39)
(37 43)
(40 42)
(41 40)
(4 7)
(7 6)
(24 25)
(25 18)
(0 133)
(8 0)
(134 9)
(135 136)
(133 135)
(10 137)
(138 10)
(13 138)
(128 139)
(139 140)
(12 141)
(1 12)
(141 1)
(142 143)
(143 16)
(137 17)
(17 11)
(10 125)
(10 1)
(129 11)
(127 20)
(16 20)
(140 20)
(13 12)
(130 21)
(144 145)
(26 146)
(145 27)
(146 144)
(147 28)
(148 29)
(136 149)
(149 150)
(150 148)
(28 151)
(30 152)
(152 8)
(33 31)
(153 154)
(155 156)
(37 36)
(38 153)
(156 39)
(154 155)
(34 157)
(158 132)
(14 158)
(159 40)
(157 160)
(160 159)
(41 42)
(161 162)
(40 161)
(162 41)
(163 164)
(165 166)
(29 167)
(164 43)
(167 45)
(45 165)
(46 32)
(166 163)
(168 169)
(170 168)
(171 47)
(169 171)
(172 170)
(173 37)
(47 48)
(48 173)
(174 175)
(42 176)
(175 172)
(176 174)
(27 0)
(34 47)
(56 57)
(57 3)
(58 59)
(3 4)
(59 60)
(5 3)
(61 56)
(62 61)
(3 63)
(3 58)
(64 3)
(65 64)
(60 66)
(2 67)
(68 69)
(70 62)
(69 71)
(67 5)
(63 72)
(73 5)
(5 74)
(75 76)
(72 2)
(2 73)
(74 2)
(6 77)
(78 7)
(7 75)
(77 78)
(76 65)
(79 80)
(9 79)
(81 82)
(9 81)
(10 15)
(83 10)
(18 10)
(19 84)
(10 19)
(14 85)
(85 86)
(86 87)
(88 23)
(89 15)
(15 90)
(15 88)
(23 21)
(23 89)
(90 23)
(22 83)
(91 24)
(92 25)
(25 93)
(93 91)
(84 17)
(17 92)
(94 26)
(95 94)
(96 97)
(28 96)
(98 99)
(80 9)
(82 9)
(29 100)
(101 28)
(102 101)
(71 68)
(97 102)
(66 3)
(3 70)
(28 103)
(103 104)
(104 28)
(105 14)
(31 106)
(106 34)
(34 105)
(107 26)
(26 108)
(35 95)
(39 107)
(108 35)
(109 110)
(110 14)
(111 109)
(87 111)
(14 34)
(99 112)
(112 98)
(113 29)
(100 113)
(47 114)
(115 116)
(116 117)
(114 115)
(117 47)
(118 119)
(119 120)
(120 121)
(121 118)
(48 122)
(122 49)
(51 44)
(37 46)
(39 26)
(38 51)
(33 55)
(50 37)
(49 34)
(31 123)
(123 50)
(3 52)
(52 53)
(53 3)
(4 6)
(22 21)
(24 18)
(27 54)
(54 30)
(32 33)
(36 38)
(43 44)
(44 32)
(44 46)
(55 50)
(50 49)
(48 49)
(43 51)
(44 33)
(44 37)
(27 30)
(51 36)
(33 37)
)

// * * * * * * * * * * * * * * * * * * * * * * * * * * * * * * * * * * * * * //


// ************************************************************************* //
