/*--------------------------------*- C++ -*----------------------------------*\
| =========                 |                                                 |
| \\      /  F ield         | OpenFOAM: The Open Source CFD Toolbox           |
|  \\    /   O peration     | Version:  2.2.x                                 |
|   \\  /    A nd           | Web:      www.OpenFOAM.org                      |
|    \\/     M anipulation  |                                                 |
\*---------------------------------------------------------------------------*/
FoamFile
{
    version     2.0;
    format      ascii;
    class       featureEdgeMesh;
    location    "constant/triSurface";
    object      lowerleg_left_back.eMesh;
}
// * * * * * * * * * * * * * * * * * * * * * * * * * * * * * * * * * * * * * //


// points:

123
(
(1.91453 3.58495 0.0916016)
(1.95269 3.57952 0.411602)
(1.94494 3.58815 0.411602)
(1.91292 3.60032 0.536602)
(1.91292 3.60032 0.411602)
(1.96141 3.55766 0.411602)
(1.95954 3.56574 0.536602)
(1.95609 3.57396 0.536602)
(1.89636 3.58157 0.0916016)
(1.88647 3.56652 0.0916016)
(1.90792 3.58632 0.0916016)
(1.96143 3.55753 0.411602)
(1.88485 3.54033 0.0916016)
(1.88392 3.54925 0.0916016)
(1.88453 3.54338 0.0916016)
(1.88449 3.55811 0.0916016)
(1.88407 3.5515 0.0916016)
(1.88435 3.55592 0.0916016)
(1.88729 3.56836 0.0916016)
(1.889 3.57216 0.0916016)
(1.89109 3.57568 0.0916016)
(1.89358 3.57888 0.0916016)
(1.86638 3.53463 0.411602)
(1.88498 3.56019 0.0916016)
(1.92927 3.56634 0.0916016)
(1.92847 3.56893 0.0916016)
(1.9316 3.55559 0.0916016)
(1.93178 3.55436 0.0916016)
(1.93131 3.55761 0.0916016)
(1.9109 3.58601 0.0916016)
(1.91967 3.5816 0.0916016)
(1.9243 3.57647 0.0916016)
(1.92036 3.58109 0.0916016)
(1.91173 3.58584 0.0916016)
(1.86392 3.55032 0.536602)
(1.86539 3.53812 0.536602)
(1.95884 3.56553 0.536602)
(1.93161 3.55431 0.0916016)
(1.88525 3.54045 0.0916016)
(1.79993 3.52736 1.41806)
(1.74246 3.54594 1.42435)
(1.95571 3.57469 0.411602)
(1.95084 3.58198 0.411602)
(1.94484 3.58824 0.411602)
(1.92176 3.5995 0.411602)
(1.9593 3.56647 0.411602)
(1.93014 3.59713 0.411602)
(1.93789 3.59333 0.411602)
(1.903 3.5993 0.411602)
(1.89487 3.58053 0.0916016)
(1.89378 3.59637 0.411602)
(1.88546 3.59174 0.411602)
(1.91206 3.59709 0.251498)
(1.95831 3.56917 0.411602)
(1.87821 3.58562 0.411602)
(1.87225 3.57821 0.411602)
(1.86775 3.56972 0.411602)
(1.88415 3.54707 0.0916016)
(1.86491 3.56035 0.411602)
(1.88989 3.57415 0.0916016)
(1.88595 3.56434 0.0916016)
(1.86392 3.55032 0.411602)
(1.93069 3.56177 0.0916016)
(1.94483 3.57708 0.251214)
(1.93547 3.59471 0.411602)
(1.92466 3.59887 0.411602)
(1.90992 3.5916 0.171585)
(1.93762 3.57295 0.171326)
(1.91133 3.58597 0.0916016)
(1.92489 3.57578 0.0916016)
(1.92024 3.58123 0.0916016)
(1.86439 3.55722 0.536602)
(1.86437 3.55712 0.411602)
(1.87458 3.58146 0.411602)
(1.88051 3.58783 0.411602)
(1.86637 3.56595 0.411602)
(1.86982 3.57411 0.411602)
(1.88746 3.59306 0.411602)
(1.86634 3.56586 0.536602)
(1.90381 3.59946 0.411602)
(1.89559 3.59711 0.536602)
(1.88767 3.59319 0.536602)
(1.89527 3.59699 0.411602)
(1.87456 3.58143 0.536602)
(1.86976 3.57399 0.536602)
(1.90412 3.59952 0.536602)
(1.88061 3.58791 0.536602)
(1.86491 3.56035 0.536602)
(1.86775 3.56972 0.536602)
(1.87225 3.57821 0.536602)
(1.87821 3.58562 0.536602)
(1.88546 3.59174 0.536602)
(1.89378 3.59637 0.536602)
(1.903 3.5993 0.536602)
(1.93165 3.54566 0.0916016)
(1.93182 3.54692 0.0916016)
(1.8 3.58414 1.42485)
(1.76967 3.57734 1.42621)
(1.73533 3.53998 1.41672)
(1.74193 3.56455 1.42683)
(1.74127 3.55527 1.42587)
(1.88523 3.56127 0.0916016)
(1.95126 3.5814 0.536602)
(1.94525 3.58782 0.536602)
(1.93823 3.59307 0.536602)
(1.92189 3.59947 0.536602)
(1.93039 3.597 0.536602)
(1.90099 3.58482 0.0916016)
(1.90435 3.58594 0.0916016)
(1.95747 3.55963 0.331331)
(1.87702 3.53696 0.217394)
(1.88437 3.54493 0.0916016)
(1.88427 3.54595 0.0916016)
(1.88551 3.56247 0.0916016)
(1.88555 3.56263 0.0916016)
(1.9315 3.55628 0.0916016)
(1.95043 3.55825 0.251261)
(1.91006 3.5861 0.0916016)
(1.91612 3.58701 0.123718)
(1.92378 3.57708 0.0916016)
(1.92375 3.57712 0.0916016)
(1.92047 3.58095 0.0916016)
(1.91449 3.58495 0.0916016)
)


// edges:

154
(
(101 9)
(37 38)
(39 40)
(14 13)
(111 13)
(112 13)
(111 112)
(16 17)
(113 9)
(114 9)
(113 114)
(35 36)
(102 103)
(5 6)
(7 102)
(103 104)
(105 3)
(104 106)
(106 105)
(107 108)
(8 107)
(108 10)
(109 11)
(12 13)
(110 12)
(13 15)
(18 19)
(20 21)
(22 110)
(23 101)
(25 24)
(115 26)
(28 115)
(27 116)
(117 29)
(10 117)
(116 109)
(118 0)
(0 30)
(119 31)
(120 119)
(121 120)
(32 121)
(122 0)
(33 122)
(34 35)
(35 22)
(27 37)
(6 35)
(1 41)
(42 1)
(2 42)
(43 2)
(4 44)
(45 5)
(41 45)
(6 7)
(44 46)
(46 47)
(47 43)
(4 48)
(49 8)
(50 51)
(48 50)
(10 52)
(11 5)
(5 53)
(51 54)
(55 56)
(12 14)
(57 13)
(53 1)
(56 58)
(13 16)
(17 15)
(9 18)
(19 59)
(59 20)
(21 49)
(54 55)
(15 23)
(60 9)
(58 61)
(24 62)
(26 27)
(62 28)
(63 25)
(64 65)
(65 4)
(52 66)
(25 67)
(2 64)
(67 63)
(29 68)
(1 2)
(69 25)
(30 70)
(66 10)
(31 69)
(70 32)
(68 33)
(71 34)
(61 72)
(73 74)
(75 76)
(76 73)
(74 77)
(78 71)
(79 4)
(80 81)
(82 79)
(77 82)
(83 84)
(84 78)
(85 80)
(81 86)
(72 75)
(3 85)
(86 83)
(87 34)
(88 87)
(89 88)
(90 89)
(91 90)
(92 91)
(93 92)
(3 93)
(36 7)
(37 94)
(94 95)
(95 27)
(57 16)
(17 23)
(38 14)
(60 18)
(19 20)
(21 8)
(29 33)
(30 32)
(31 25)
(24 28)
(26 37)
(6 36)
(22 5)
(12 38)
(11 22)
(96 97)
(39 96)
(40 98)
(98 39)
(97 99)
(99 39)
(39 100)
(100 40)
)

// * * * * * * * * * * * * * * * * * * * * * * * * * * * * * * * * * * * * * //


// ************************************************************************* //
