/*--------------------------------*- C++ -*----------------------------------*\
| =========                 |                                                 |
| \\      /  F ield         | OpenFOAM: The Open Source CFD Toolbox           |
|  \\    /   O peration     | Version:  2.2.x                                 |
|   \\  /    A nd           | Web:      www.OpenFOAM.org                      |
|    \\/     M anipulation  |                                                 |
\*---------------------------------------------------------------------------*/
FoamFile
{
    version     2.0;
    format      ascii;
    class       featureEdgeMesh;
    location    "constant/triSurface";
    object      lowerleg_right_front.eMesh;
}
// * * * * * * * * * * * * * * * * * * * * * * * * * * * * * * * * * * * * * //


// points:

406
(
(1.72983 3.5247 0.525918)
(1.73565 3.557 0.453021)
(1.73565 3.55705 0.453313)
(1.7357 3.55665 0.449033)
(1.7357 3.55665 0.449986)
(1.73575 3.55625 0.446948)
(1.7357 3.55667 0.451344)
(1.7357 3.55665 0.450638)
(1.73567 3.55689 0.452448)
(1.73567 3.5569 0.453698)
(1.73567 3.55689 0.453629)
(1.73565 3.557 0.454119)
(1.73565 3.55706 0.454386)
(1.73565 3.55701 0.454154)
(1.7357 3.55664 0.451179)
(1.7357 3.55662 0.450465)
(1.73575 3.55624 0.447832)
(1.66103 3.50794 0.411602)
(1.71551 3.55811 0.0916016)
(1.63857 3.55753 0.411602)
(1.63823 3.54585 0.411602)
(1.73367 3.53496 0.411602)
(1.64957 3.55825 0.251261)
(1.68306 3.51696 0.0916016)
(1.6718 3.50282 0.411602)
(1.67255 3.50652 0.343253)
(1.64515 3.52432 0.411602)
(1.64518 3.52427 0.411602)
(1.67257 3.50659 0.342058)
(1.63853 3.55747 0.536602)
(1.65007 3.5176 0.536602)
(1.6718 3.50282 0.536602)
(1.72445 3.52309 0.348493)
(1.71493 3.51353 0.34326)
(1.72568 3.5228 0.368699)
(1.7258 3.52263 0.372033)
(1.72074 3.52589 0.251056)
(1.72686 3.52113 0.411602)
(1.72498 3.52381 0.348845)
(1.69577 3.51475 0.0916016)
(1.70215 3.50657 0.342686)
(1.70216 3.50653 0.343257)
(1.70214 3.5066 0.342063)
(1.70212 3.50666 0.340816)
(1.72419 3.52274 0.348317)
(1.72392 3.52239 0.348173)
(1.7022 3.50639 0.345532)
(1.70217 3.50652 0.343464)
(1.70192 3.50689 0.330839)
(1.71672 3.51493 0.344089)
(1.71636 3.51464 0.343913)
(1.71741 3.51552 0.344441)
(1.71844 3.51642 0.34497)
(1.71878 3.51673 0.345146)
(1.72392 3.52239 0.348141)
(1.73509 3.56035 0.411602)
(1.7294 3.52534 0.47202)
(1.73646 3.55068 0.534776)
(1.73595 3.55345 0.465913)
(1.73654 3.55008 0.536602)
(1.69661 3.50128 0.536602)
(1.72113 3.51476 0.536602)
(1.71705 3.51077 0.536602)
(1.72592 3.51984 0.536602)
(1.73026 3.52501 0.536602)
(1.73485 3.54001 0.536602)
(1.73654 3.54907 0.536602)
(1.73656 3.54976 0.536602)
(1.73656 3.54949 0.536602)
(1.73655 3.54922 0.536602)
(1.73656 3.54936 0.536602)
(1.73574 3.5563 0.451162)
(1.7357 3.55666 0.452683)
(1.73568 3.55681 0.459347)
(1.73567 3.55683 0.459301)
(1.73575 3.55627 0.449291)
(1.73566 3.55697 0.459028)
(1.73565 3.55698 0.459005)
(1.73569 3.5567 0.452815)
(1.73575 3.55625 0.448486)
(1.73564 3.55711 0.451376)
(1.73564 3.55711 0.453041)
(1.73564 3.55711 0.452406)
(1.73564 3.55696 0.536356)
(1.73608 3.55032 0.536602)
(1.73562 3.55712 0.411602)
(1.73639 3.55138 0.411602)
(1.73645 3.55085 0.535786)
(1.73563 3.55712 0.427651)
(1.73647 3.55069 0.536226)
(1.73651 3.55043 0.536506)
(1.73601 3.55098 0.536602)
(1.73561 3.55722 0.536602)
(1.73648 3.55065 0.536227)
(1.73566 3.55681 0.521856)
(1.73601 3.55426 0.536602)
(1.73561 3.55721 0.530435)
(1.73561 3.55722 0.534047)
(1.68411 3.50042 0.536602)
(1.69504 3.50117 0.536602)
(1.73561 3.55721 0.52111)
(1.73562 3.55716 0.485278)
(1.73563 3.55714 0.468176)
(1.73563 3.55715 0.474886)
(1.73561 3.5572 0.517014)
(1.71687 3.51087 0.536602)
(1.71582 3.50989 0.536602)
(1.73563 3.55715 0.451201)
(1.73563 3.55715 0.452231)
(1.7354 3.55722 0.536602)
(1.73518 3.55985 0.431812)
(1.73518 3.55982 0.432897)
(1.73519 3.55971 0.437142)
(1.73519 3.55977 0.434979)
(1.73519 3.55971 0.43709)
(1.73565 3.55699 0.452414)
(1.73567 3.55688 0.451805)
(1.73567 3.55687 0.45116)
(1.6875 3.50399 0.343462)
(1.6875 3.504 0.343255)
(1.73643 3.55078 0.532004)
(1.73572 3.55652 0.447758)
(1.73564 3.55711 0.449542)
(1.71608 3.54925 0.0916016)
(1.64253 3.55963 0.331331)
(1.73362 3.53463 0.411602)
(1.73608 3.55032 0.411602)
(1.67255 3.50648 0.343874)
(1.67654 3.50991 0.217328)
(1.67809 3.52104 0.0916016)
(1.66822 3.55454 0.0916016)
(1.6405 3.53462 0.411602)
(1.67423 3.52624 0.0916016)
(1.66915 3.53959 0.0916016)
(1.65209 3.51523 0.411602)
(1.65629 3.51136 0.411602)
(1.63903 3.54024 0.411602)
(1.67963 3.50089 0.411602)
(1.68766 3.5003 0.411602)
(1.66354 3.50644 0.411602)
(1.72545 3.52313 0.362081)
(1.68703 3.51512 0.0916016)
(1.67488 3.50843 0.250999)
(1.7258 3.52263 0.372007)
(1.71262 3.53171 0.0916016)
(1.7074 3.52262 0.0916016)
(1.71641 3.51033 0.411602)
(1.69555 3.50106 0.411602)
(1.70306 3.50307 0.411602)
(1.71003 3.50619 0.411602)
(1.6727 3.50682 0.330829)
(1.67259 3.50665 0.340812)
(1.67255 3.5065 0.34346)
(1.69128 3.51433 0.0916016)
(1.70225 3.50619 0.348841)
(1.70401 3.5191 0.0916016)
(1.70012 3.5164 0.0916016)
(1.71515 3.54033 0.0916016)
(1.72098 3.51462 0.411602)
(1.71796 3.51163 0.411602)
(1.71687 3.51064 0.411602)
(1.73029 3.52508 0.411602)
(1.73017 3.52486 0.411602)
(1.72809 3.52221 0.411602)
(1.72581 3.51969 0.411602)
(1.72378 3.51752 0.411602)
(1.72247 3.51615 0.411602)
(1.72989 3.52441 0.411602)
(1.72971 3.52415 0.411602)
(1.73011 3.52475 0.411602)
(1.73004 3.52464 0.411602)
(1.71384 3.50844 0.536602)
(1.7164 3.51026 0.536602)
(1.71653 3.51037 0.411602)
(1.71622 3.51013 0.411602)
(1.71671 3.5105 0.536602)
(1.69947 3.50195 0.411602)
(1.69642 3.50124 0.411602)
(1.70266 3.50292 0.536602)
(1.70842 3.50532 0.536602)
(1.69967 3.502 0.536602)
(1.68399 3.50042 0.411602)
(1.70246 3.50285 0.411602)
(1.71366 3.50832 0.411602)
(1.70822 3.50522 0.411602)
(1.72261 3.51629 0.536602)
(1.72391 3.51767 0.536602)
(1.73657 3.5487 0.411602)
(1.73662 3.54906 0.411602)
(1.73655 3.54857 0.411602)
(1.73652 3.54841 0.411602)
(1.73663 3.54918 0.411602)
(1.73658 3.54881 0.411602)
(1.7366 3.5489 0.411602)
(1.73661 3.54899 0.411602)
(1.73368 3.5349 0.446428)
(1.73369 3.53487 0.452868)
(1.73575 3.55624 0.450921)
(1.73576 3.55621 0.448994)
(1.73576 3.55619 0.448176)
(1.73576 3.55618 0.447522)
(1.73586 3.55546 0.442915)
(1.73564 3.55711 0.453609)
(1.73568 3.55671 0.536106)
(1.73568 3.55675 0.426624)
(1.73576 3.55611 0.533683)
(1.73573 3.55635 0.531088)
(1.73576 3.55608 0.53534)
(1.73573 3.5563 0.534331)
(1.73649 3.55059 0.536324)
(1.7365 3.55051 0.536417)
(1.73646 3.5508 0.536121)
(1.73574 3.55627 0.535598)
(1.73571 3.55648 0.535854)
(1.73643 3.55108 0.535755)
(1.73568 3.55668 0.503126)
(1.73565 3.55694 0.476336)
(1.73565 3.55692 0.502065)
(1.73565 3.55703 0.464383)
(1.73566 3.55692 0.464987)
(1.7346 3.53885 0.411602)
(1.73436 3.5378 0.411602)
(1.73503 3.54082 0.411602)
(1.73483 3.53987 0.411602)
(1.73412 3.53676 0.411602)
(1.73592 3.5549 0.53321)
(1.73561 3.55721 0.521173)
(1.73561 3.55722 0.535471)
(1.73522 3.54171 0.411602)
(1.73565 3.55704 0.458871)
(1.73564 3.55708 0.464079)
(1.73562 3.55717 0.474945)
(1.73562 3.55717 0.474096)
(1.73561 3.5572 0.515976)
(1.73562 3.55718 0.500934)
(1.73561 3.55719 0.500583)
(1.73662 3.5497 0.411602)
(1.73664 3.54953 0.411602)
(1.73665 3.54942 0.411602)
(1.73664 3.54932 0.411602)
(1.73664 3.54923 0.411602)
(1.73651 3.55053 0.411602)
(1.73658 3.55 0.411602)
(1.73627 3.54698 0.411602)
(1.73567 3.54387 0.411602)
(1.73649 3.54823 0.411602)
(1.7335 3.53433 0.411602)
(1.73344 3.53414 0.411602)
(1.73539 3.54251 0.411602)
(1.73117 3.52742 0.411602)
(1.73077 3.52626 0.411602)
(1.73162 3.52873 0.411602)
(1.73056 3.5257 0.411602)
(1.73041 3.52535 0.411602)
(1.73336 3.53389 0.411602)
(1.73274 3.53206 0.411602)
(1.73035 3.52521 0.411602)
(1.684 3.50044 0.536602)
(1.68366 3.50042 0.536602)
(1.68551 3.50051 0.536602)
(1.69521 3.501 0.536602)
(1.93178 3.55436 0.0916016)
(1.93161 3.55431 0.0916016)
(1.93165 3.54566 0.0916016)
(1.93182 3.54692 0.0916016)
(1.71685 3.51085 0.536602)
(1.72409 3.51761 0.536602)
(1.73049 3.52712 0.536602)
(1.70606 3.50425 0.536602)
(1.72192 3.51558 0.536602)
(1.72472 3.51854 0.536602)
(1.73563 3.55715 0.44938)
(1.73563 3.55715 0.451106)
(1.73563 3.55715 0.452119)
(1.66839 3.55455 0.0916016)
(1.73519 3.55972 0.436863)
(1.73546 3.55819 0.497892)
(1.73547 3.55811 0.501146)
(1.73554 3.55769 0.517717)
(1.73555 3.55762 0.520504)
(1.73556 3.55755 0.523297)
(1.73558 3.55738 0.530159)
(1.73559 3.55731 0.53304)
(1.7356 3.55728 0.533962)
(1.7356 3.55725 0.535278)
(1.7356 3.55725 0.535448)
(1.73567 3.55687 0.452361)
(1.67256 3.50655 0.342681)
(1.68749 3.50413 0.340814)
(1.71498 3.51339 0.345534)
(1.71454 3.5139 0.330845)
(1.70217 3.50649 0.343878)
(1.7149 3.5136 0.342065)
(1.71589 3.51506 0.329598)
(1.7154 3.5144 0.33521)
(1.7362 3.55142 0.505056)
(1.73006 3.52487 0.532068)
(1.73639 3.55045 0.525234)
(1.72965 3.52497 0.509315)
(1.73581 3.55573 0.534818)
(1.73574 3.55629 0.46845)
(1.64226 3.54839 0.331371)
(1.63891 3.54087 0.536602)
(1.64497 3.52477 0.536602)
(1.66365 3.50642 0.536602)
(1.65635 3.51142 0.536602)
(1.72472 3.52345 0.348669)
(1.68743 3.50432 0.330832)
(1.68782 3.50606 0.251007)
(1.68751 3.50365 0.348839)
(1.72166 3.51966 0.346828)
(1.72105 3.51899 0.346492)
(1.72224 3.52033 0.347084)
(1.72253 3.52067 0.34726)
(1.70082 3.50872 0.251027)
(1.72338 3.52169 0.347837)
(1.72282 3.521 0.347501)
(1.72225 3.52033 0.347165)
(1.72052 3.52504 0.256667)
(1.72027 3.52419 0.262278)
(1.72042 3.51833 0.346156)
(1.72001 3.52335 0.267888)
(1.71973 3.52252 0.273499)
(1.71942 3.52169 0.27911)
(1.71776 3.5158 0.344811)
(1.71707 3.51521 0.344475)
(1.71977 3.51768 0.34582)
(1.71911 3.51704 0.345484)
(1.71636 3.51574 0.323988)
(1.71681 3.51644 0.318378)
(1.71844 3.51641 0.345147)
(1.71806 3.51862 0.301549)
(1.71766 3.51788 0.307158)
(1.71843 3.51937 0.295939)
(1.71724 3.51715 0.312768)
(1.7191 3.52088 0.28472)
(1.71878 3.52012 0.290329)
(1.71707 3.51522 0.344265)
(1.71601 3.51436 0.343736)
(1.72135 3.51933 0.346555)
(1.72104 3.519 0.346379)
(1.7181 3.51612 0.344793)
(1.71776 3.51582 0.344617)
(1.72165 3.51966 0.346731)
(1.71911 3.51705 0.345322)
(1.71977 3.51769 0.345674)
(1.71944 3.51736 0.345498)
(1.72009 3.51801 0.34585)
(1.7231 3.52135 0.347612)
(1.72282 3.52101 0.347436)
(1.72338 3.52169 0.347789)
(1.72041 3.51834 0.346027)
(1.72073 3.51867 0.346203)
(1.72365 3.52204 0.347964)
(1.72195 3.52 0.346908)
(1.70879 3.50965 0.340818)
(1.70882 3.50958 0.342064)
(1.7254 3.56 0.251559)
(1.7365 3.55056 0.536602)
(1.73647 3.55074 0.536602)
(1.73652 3.55029 0.536602)
(1.71813 3.51176 0.536602)
(1.72924 3.5236 0.536602)
(1.72956 3.524 0.536602)
(1.73006 3.52468 0.536602)
(1.73013 3.52479 0.536602)
(1.73019 3.5249 0.536602)
(1.72881 3.52308 0.536602)
(1.72979 3.52431 0.536602)
(1.72819 3.52236 0.536602)
(1.72998 3.52457 0.536602)
(1.731 3.52686 0.536602)
(1.73125 3.52757 0.536602)
(1.73064 3.52585 0.536602)
(1.73073 3.52609 0.536602)
(1.73037 3.52524 0.536602)
(1.7305 3.5255 0.536602)
(1.7328 3.5322 0.536602)
(1.7334 3.53403 0.536602)
(1.73169 3.52888 0.536602)
(1.73084 3.52641 0.536602)
(1.73463 3.53899 0.536602)
(1.73541 3.54267 0.536602)
(1.73568 3.54404 0.536602)
(1.73355 3.53447 0.536602)
(1.73372 3.5351 0.536602)
(1.73349 3.53428 0.536602)
(1.73627 3.5472 0.536602)
(1.73634 3.54763 0.536602)
(1.7364 3.54798 0.536602)
(1.73644 3.54827 0.536602)
(1.73648 3.54852 0.536602)
(1.73506 3.54098 0.536602)
(1.73606 3.54598 0.536602)
(1.73416 3.5369 0.536602)
(1.73652 3.54891 0.536602)
(1.7365 3.54873 0.536602)
(1.73571 3.55653 0.459911)
(1.73634 3.55117 0.523827)
(1.73648 3.5505 0.534805)
(1.73645 3.55095 0.536602)
(1.73637 3.55159 0.536602)
(1.7362 3.55289 0.536602)
(1.71673 3.51096 0.536602)
(1.71669 3.51091 0.536602)
(1.71659 3.51095 0.536602)
)


// edges:

533
(
(3 4)
(11 12)
(286 8)
(20 22)
(287 28)
(25 287)
(288 39)
(38 289)
(41 40)
(290 36)
(46 291)
(291 47)
(36 292)
(293 294)
(51 50)
(54 44)
(44 32)
(36 37)
(295 58)
(0 56)
(296 0)
(59 297)
(297 295)
(0 298)
(298 56)
(296 64)
(6 75)
(71 78)
(84 299)
(91 83)
(87 84)
(57 84)
(74 300)
(92 97)
(101 103)
(103 102)
(102 73)
(100 101)
(109 29)
(109 110)
(114 113)
(43 39)
(98 99)
(65 84)
(403 105)
(105 62)
(106 404)
(405 403)
(404 405)
(91 109)
(7 286)
(301 20)
(25 28)
(29 302)
(303 30)
(304 31)
(30 305)
(19 29)
(302 303)
(306 32)
(305 304)
(37 35)
(307 288)
(39 308)
(308 307)
(309 39)
(310 311)
(45 33)
(312 313)
(38 32)
(39 314)
(45 315)
(315 316)
(317 310)
(318 319)
(48 314)
(316 317)
(311 320)
(319 321)
(322 321)
(323 322)
(324 325)
(320 326)
(326 327)
(292 328)
(329 328)
(327 330)
(331 332)
(333 331)
(332 334)
(36 318)
(335 336)
(334 329)
(336 333)
(323 335)
(330 324)
(337 49)
(50 338)
(51 337)
(38 33)
(339 340)
(341 342)
(343 339)
(344 53)
(345 346)
(347 345)
(348 349)
(51 342)
(350 348)
(351 347)
(352 351)
(33 54)
(54 353)
(52 341)
(346 344)
(354 343)
(312 354)
(349 313)
(38 306)
(340 352)
(353 350)
(54 36)
(36 38)
(355 42)
(43 355)
(42 356)
(356 40)
(36 34)
(34 37)
(55 357)
(357 18)
(358 359)
(360 358)
(58 59)
(59 360)
(361 61)
(362 363)
(364 365)
(365 366)
(62 361)
(367 362)
(363 368)
(369 367)
(368 370)
(370 364)
(63 369)
(371 372)
(64 56)
(373 374)
(375 376)
(377 378)
(64 375)
(372 379)
(376 373)
(366 64)
(380 371)
(374 380)
(379 377)
(381 65)
(382 383)
(384 385)
(386 384)
(387 388)
(389 390)
(390 391)
(378 386)
(392 382)
(383 393)
(65 392)
(394 381)
(393 387)
(385 394)
(388 389)
(395 66)
(68 67)
(67 59)
(66 69)
(396 395)
(69 70)
(70 68)
(391 396)
(72 75)
(74 76)
(397 71)
(84 83)
(79 398)
(57 87)
(398 399)
(79 84)
(90 299)
(90 84)
(93 87)
(84 399)
(6 9)
(300 397)
(95 92)
(92 96)
(5 80)
(400 401)
(359 400)
(98 60)
(31 98)
(101 102)
(401 402)
(104 101)
(402 95)
(108 107)
(109 92)
(112 111)
(109 112)
(112 113)
(12 2)
(18 123)
(124 19)
(19 20)
(125 21)
(21 126)
(127 17)
(22 124)
(128 23)
(23 129)
(17 24)
(130 22)
(20 131)
(129 132)
(17 25)
(26 27)
(131 26)
(133 130)
(28 128)
(132 133)
(27 134)
(134 17)
(30 26)
(27 30)
(135 27)
(136 19)
(26 136)
(137 138)
(24 139)
(34 140)
(141 23)
(23 142)
(139 135)
(35 143)
(143 34)
(144 145)
(146 37)
(147 148)
(138 147)
(140 38)
(149 146)
(24 137)
(148 149)
(150 151)
(152 127)
(25 152)
(151 28)
(153 141)
(39 153)
(142 150)
(154 39)
(39 41)
(145 155)
(44 45)
(156 39)
(155 156)
(32 45)
(39 46)
(47 39)
(39 48)
(49 33)
(53 33)
(41 47)
(46 154)
(157 144)
(48 43)
(34 38)
(37 125)
(34 35)
(126 55)
(123 157)
(158 159)
(159 160)
(161 162)
(163 164)
(165 166)
(167 168)
(168 163)
(169 170)
(170 167)
(164 165)
(162 169)
(166 158)
(171 172)
(173 174)
(172 175)
(176 177)
(178 179)
(180 178)
(177 181)
(182 176)
(60 180)
(183 184)
(179 171)
(174 183)
(184 182)
(160 173)
(175 62)
(185 186)
(61 185)
(186 63)
(66 187)
(67 188)
(188 68)
(189 190)
(191 67)
(69 192)
(192 66)
(187 189)
(70 193)
(193 69)
(68 194)
(194 70)
(195 196)
(71 197)
(197 198)
(78 10)
(198 199)
(200 201)
(10 6)
(199 200)
(202 81)
(7 79)
(16 7)
(79 6)
(81 82)
(83 203)
(86 204)
(204 85)
(84 85)
(85 5)
(88 5)
(205 206)
(207 208)
(208 205)
(209 210)
(211 89)
(89 209)
(212 207)
(210 90)
(92 83)
(213 212)
(214 211)
(93 89)
(89 214)
(90 93)
(203 213)
(215 216)
(217 215)
(94 217)
(206 94)
(216 218)
(8 6)
(219 77)
(13 9)
(218 219)
(58 191)
(220 221)
(222 223)
(82 7)
(221 224)
(81 8)
(223 220)
(201 5)
(12 202)
(225 95)
(96 226)
(97 96)
(92 227)
(227 97)
(228 222)
(13 229)
(229 12)
(99 60)
(181 24)
(77 230)
(95 94)
(94 225)
(226 100)
(101 231)
(231 103)
(232 102)
(103 232)
(230 102)
(100 104)
(104 233)
(233 234)
(235 101)
(234 235)
(236 237)
(237 238)
(239 240)
(238 239)
(224 21)
(86 241)
(241 242)
(242 236)
(243 244)
(190 245)
(246 247)
(196 21)
(21 246)
(248 228)
(245 243)
(244 248)
(240 58)
(21 195)
(249 250)
(251 249)
(252 253)
(247 254)
(255 251)
(250 252)
(254 255)
(256 161)
(253 256)
(257 31)
(31 258)
(258 257)
(99 259)
(259 260)
(261 262)
(262 263)
(263 264)
(264 261)
(62 265)
(265 106)
(105 266)
(266 267)
(260 268)
(268 106)
(269 105)
(61 269)
(267 270)
(270 63)
(271 122)
(107 272)
(272 271)
(82 108)
(108 273)
(273 107)
(22 19)
(18 274)
(274 22)
(110 55)
(111 110)
(113 111)
(112 114)
(114 275)
(275 113)
(276 112)
(277 276)
(278 277)
(279 278)
(280 279)
(281 280)
(282 281)
(283 282)
(284 283)
(285 284)
(92 285)
(115 116)
(1 2)
(5 3)
(6 7)
(117 4)
(8 9)
(9 10)
(10 8)
(8 11)
(11 9)
(1 11)
(11 13)
(13 12)
(7 14)
(15 7)
(14 15)
(6 14)
(8 1)
(4 15)
(15 16)
(16 4)
(4 7)
(116 7)
(32 33)
(39 118)
(39 119)
(119 118)
(40 39)
(42 39)
(40 42)
(42 43)
(33 44)
(49 50)
(33 50)
(52 33)
(53 52)
(57 120)
(73 72)
(73 74)
(74 72)
(75 71)
(76 9)
(9 74)
(76 77)
(77 9)
(6 78)
(78 74)
(75 79)
(79 16)
(3 80)
(2 81)
(82 115)
(16 5)
(117 80)
(85 86)
(121 122)
(121 5)
(84 91)
(91 92)
(86 88)
(88 85)
)

// * * * * * * * * * * * * * * * * * * * * * * * * * * * * * * * * * * * * * //


// ************************************************************************* //
