/*--------------------------------*- C++ -*----------------------------------*\
| =========                 |                                                 |
| \\      /  F ield         | OpenFOAM: The Open Source CFD Toolbox           |
|  \\    /   O peration     | Version:  2.2.x                                 |
|   \\  /    A nd           | Web:      www.OpenFOAM.org                      |
|    \\/     M anipulation  |                                                 |
\*---------------------------------------------------------------------------*/
FoamFile
{
    version     2.0;
    format      ascii;
    class       featureEdgeMesh;
    location    "constant/triSurface";
    object      lowerleg_right_back.eMesh;
}
// * * * * * * * * * * * * * * * * * * * * * * * * * * * * * * * * * * * * * //


// points:

315
(
(1.73118 3.57369 0.536231)
(1.73233 3.5708 0.411715)
(1.73297 3.56902 0.412197)
(1.73564 3.55712 0.458716)
(1.73564 3.55709 0.454503)
(1.73565 3.55706 0.454386)
(1.73564 3.55709 0.458787)
(1.67154 3.56894 0.0916016)
(1.66822 3.55454 0.0916016)
(1.63859 3.55766 0.411602)
(1.63857 3.55753 0.411602)
(1.64957 3.55825 0.251261)
(1.64731 3.57952 0.411602)
(1.68708 3.60032 0.411602)
(1.69208 3.58632 0.0916016)
(1.68708 3.60032 0.536602)
(1.63853 3.55747 0.536602)
(1.73509 3.56035 0.411602)
(1.73225 3.56972 0.411602)
(1.71551 3.55811 0.0916016)
(1.7323 3.56959 0.411602)
(1.73565 3.55704 0.458871)
(1.73565 3.55698 0.459005)
(1.70151 3.59812 0.536602)
(1.71524 3.59125 0.411602)
(1.72611 3.58054 0.45569)
(1.72613 3.58053 0.455724)
(1.71521 3.59127 0.536602)
(1.72366 3.58359 0.536602)
(1.71364 3.59236 0.536602)
(1.71455 3.59174 0.536602)
(1.70693 3.59606 0.536602)
(1.70605 3.59644 0.536602)
(1.70622 3.59637 0.536602)
(1.7261 3.58056 0.411602)
(1.71036 3.59433 0.536602)
(1.73129 3.57344 0.536184)
(1.7295 3.57536 0.536602)
(1.72786 3.57804 0.536602)
(1.73161 3.57254 0.53568)
(1.73225 3.56972 0.536602)
(1.72698 3.57934 0.536602)
(1.72775 3.57821 0.536602)
(1.73227 3.56967 0.536602)
(1.73509 3.56035 0.536602)
(1.73507 3.56045 0.536602)
(1.73563 3.55714 0.468176)
(1.73562 3.55716 0.463886)
(1.73563 3.55713 0.463772)
(1.73562 3.55717 0.474096)
(1.73559 3.55742 0.464839)
(1.73561 3.55721 0.530435)
(1.73561 3.55721 0.52111)
(1.73555 3.55762 0.520504)
(1.73556 3.55755 0.523297)
(1.73562 3.55717 0.474945)
(1.73563 3.55715 0.474886)
(1.73562 3.55716 0.45886)
(1.73562 3.55716 0.457006)
(1.73563 3.5572 0.454837)
(1.73561 3.55731 0.459484)
(1.73557 3.55749 0.535256)
(1.7356 3.55725 0.535278)
(1.7356 3.55725 0.535448)
(1.73556 3.55753 0.533651)
(1.73559 3.55731 0.53304)
(1.7356 3.55728 0.533962)
(1.73555 3.5576 0.529791)
(1.73561 3.55722 0.536602)
(1.73554 3.55772 0.501032)
(1.73554 3.55769 0.517717)
(1.73563 3.55715 0.454725)
(1.73563 3.55715 0.454028)
(1.73564 3.55711 0.454621)
(1.73563 3.55719 0.45353)
(1.73564 3.55711 0.453609)
(1.73563 3.55715 0.452895)
(1.73564 3.55711 0.453041)
(1.73563 3.55715 0.453256)
(1.73562 3.55722 0.452649)
(1.73563 3.55715 0.453566)
(1.73558 3.55738 0.530159)
(1.73554 3.55769 0.520407)
(1.73561 3.55719 0.500583)
(1.73562 3.55718 0.500934)
(1.73562 3.55716 0.485278)
(1.73562 3.55716 0.46307)
(1.73562 3.55714 0.4413)
(1.73533 3.5591 0.434951)
(1.73562 3.55714 0.441247)
(1.73562 3.55715 0.44616)
(1.73563 3.55715 0.44938)
(1.73552 3.55785 0.446502)
(1.73562 3.55715 0.449295)
(1.73563 3.55715 0.451106)
(1.73561 3.55732 0.451526)
(1.73563 3.55715 0.452231)
(1.73563 3.55715 0.452737)
(1.73562 3.55715 0.446232)
(1.73544 3.55838 0.441557)
(1.73558 3.55751 0.449665)
(1.73521 3.55987 0.427807)
(1.73563 3.55715 0.451201)
(1.73563 3.55715 0.452119)
(1.73562 3.55714 0.434719)
(1.73563 3.55712 0.427651)
(1.73563 3.55711 0.434781)
(1.73207 3.57147 0.411725)
(1.73089 3.57403 0.411717)
(1.7347 3.56262 0.418573)
(1.73223 3.57106 0.411775)
(1.72875 3.57699 0.412214)
(1.73161 3.5726 0.411693)
(1.73134 3.57321 0.411682)
(1.73476 3.56034 0.411602)
(1.72862 3.57716 0.412186)
(1.72787 3.57819 0.412428)
(1.72867 3.57711 0.412196)
(1.72858 3.57723 0.412176)
(1.72781 3.57826 0.412002)
(1.72802 3.57797 0.412051)
(1.72642 3.58013 0.411678)
(1.72773 3.57837 0.411984)
(1.73546 3.55823 0.501181)
(1.73547 3.55811 0.501146)
(1.73551 3.55796 0.477104)
(1.73546 3.55819 0.497892)
(1.73521 3.55964 0.437339)
(1.73501 3.56078 0.430189)
(1.73518 3.55982 0.432897)
(1.73519 3.55977 0.434979)
(1.73519 3.55972 0.436863)
(1.73519 3.55971 0.437142)
(1.73519 3.55971 0.43709)
(1.73444 3.56337 0.423922)
(1.73518 3.55985 0.431812)
(1.73563 3.55705 0.501509)
(1.73564 3.55701 0.521492)
(1.73564 3.55698 0.530613)
(1.73564 3.55711 0.463926)
(1.73564 3.55708 0.464079)
(1.73564 3.55711 0.441402)
(1.73564 3.55711 0.446371)
(1.73564 3.55711 0.449542)
(1.73564 3.55711 0.451376)
(1.73561 3.55722 0.535471)
(1.73564 3.55711 0.452406)
(1.73561 3.5572 0.517014)
(1.73561 3.5572 0.515976)
(1.73561 3.55722 0.534047)
(1.73536 3.55762 0.536602)
(1.7354 3.55722 0.536602)
(1.66839 3.55455 0.0916016)
(1.73564 3.5571 0.458752)
(1.7261 3.58056 0.458324)
(1.7261 3.58056 0.455656)
(1.72612 3.58054 0.458491)
(1.73561 3.55721 0.521173)
(1.73557 3.55757 0.47602)
(1.73483 3.56183 0.423551)
(1.73563 3.5571 0.475255)
(1.73539 3.55733 0.536602)
(1.65517 3.57708 0.251214)
(1.64169 3.56917 0.411602)
(1.66238 3.57295 0.171326)
(1.65486 3.58798 0.411602)
(1.67538 3.59888 0.411602)
(1.68808 3.58699 0.107665)
(1.69008 3.5916 0.171585)
(1.66447 3.59467 0.411602)
(1.68891 3.58601 0.0916016)
(1.68579 3.58506 0.0916016)
(1.68794 3.59709 0.251498)
(1.67516 3.57587 0.0916016)
(1.67996 3.5814 0.0916016)
(1.64429 3.57469 0.411602)
(1.65516 3.58824 0.411602)
(1.66211 3.59333 0.411602)
(1.64916 3.58198 0.411602)
(1.66986 3.59713 0.411602)
(1.67824 3.5995 0.411602)
(1.6407 3.56647 0.411602)
(1.70622 3.59637 0.411602)
(1.697 3.5993 0.411602)
(1.71455 3.59174 0.411602)
(1.72179 3.58562 0.411602)
(1.72775 3.57821 0.411602)
(1.73565 3.55701 0.454154)
(1.70153 3.59812 0.411602)
(1.72592 3.5808 0.536602)
(1.72578 3.58099 0.536602)
(1.72607 3.58061 0.536602)
(1.72548 3.58137 0.536602)
(1.71822 3.58893 0.536602)
(1.71749 3.58954 0.536602)
(1.71674 3.59013 0.536602)
(1.72104 3.58636 0.536602)
(1.71966 3.58767 0.536602)
(1.72489 3.58212 0.536602)
(1.72579 3.58096 0.451795)
(1.7261 3.58056 0.416222)
(1.70867 3.59523 0.536602)
(1.7112 3.59386 0.536602)
(1.71283 3.59287 0.536602)
(1.7261 3.58056 0.414042)
(1.71202 3.59338 0.536602)
(1.73433 3.5636 0.536602)
(1.73339 3.56668 0.536602)
(1.72612 3.58053 0.536602)
(1.72609 3.58057 0.536602)
(1.72618 3.58045 0.536602)
(1.7263 3.5803 0.536602)
(1.72653 3.57998 0.536602)
(1.72808 3.57791 0.523042)
(1.73562 3.55712 0.411602)
(1.73143 3.57303 0.411681)
(1.73151 3.57283 0.411685)
(1.73157 3.57271 0.411728)
(1.72627 3.58034 0.41168)
(1.72627 3.58034 0.411641)
(1.73565 3.55705 0.453313)
(1.73574 3.55627 0.535598)
(1.73571 3.55648 0.535854)
(1.73568 3.55671 0.536106)
(1.73576 3.55611 0.533683)
(1.73573 3.5563 0.534331)
(1.73573 3.55635 0.531088)
(1.73564 3.55696 0.536356)
(1.73576 3.55608 0.53534)
(1.73565 3.55694 0.476336)
(1.73568 3.55668 0.503126)
(1.73566 3.55681 0.521856)
(1.73565 3.55692 0.502065)
(1.73566 3.55692 0.464987)
(1.73565 3.55703 0.464383)
(1.93178 3.55436 0.0916016)
(1.93161 3.55431 0.0916016)
(1.93165 3.54566 0.0916016)
(1.93182 3.54692 0.0916016)
(1.88525 3.54045 0.0916016)
(1.88453 3.54338 0.0916016)
(1.88485 3.54033 0.0916016)
(1.70179 3.59779 0.536602)
(1.697 3.5993 0.536602)
(1.72179 3.58562 0.536602)
(1.67609 3.57718 0.0916016)
(1.67949 3.58097 0.0916016)
(1.68342 3.5839 0.0916016)
(1.68551 3.58495 0.0916016)
(1.68769 3.58572 0.0916016)
(1.68987 3.58617 0.0916016)
(1.73535 3.5577 0.536602)
(1.71786 3.58988 0.529273)
(1.72376 3.5835 0.466508)
(1.70571 3.5965 0.464926)
(1.71408 3.59187 0.441374)
(1.73344 3.56736 0.414977)
(1.72853 3.57729 0.412166)
(1.72848 3.57735 0.412155)
(1.72827 3.57764 0.412107)
(1.72821 3.57772 0.412094)
(1.72843 3.57742 0.412144)
(1.72815 3.5778 0.41208)
(1.72833 3.57756 0.41212)
(1.72809 3.57789 0.412066)
(1.72838 3.57749 0.412132)
(1.72772 3.57839 0.41236)
(1.64253 3.55963 0.331331)
(1.67811 3.59947 0.536602)
(1.66961 3.597 0.536602)
(1.66177 3.59307 0.536602)
(1.65475 3.58782 0.536602)
(1.64874 3.5814 0.536602)
(1.64391 3.57396 0.536602)
(1.69565 3.58594 0.0916016)
(1.7254 3.56 0.251559)
(1.69901 3.58482 0.0916016)
(1.70513 3.58053 0.0916016)
(1.71011 3.57415 0.0916016)
(1.71353 3.56652 0.0916016)
(1.70335 3.59751 0.536602)
(1.72224 3.5854 0.489638)
(1.7208 3.58698 0.503083)
(1.71853 3.58926 0.523462)
(1.72368 3.58368 0.475509)
(1.71952 3.58829 0.514673)
(1.70999 3.59529 0.532167)
(1.70964 3.59531 0.524845)
(1.70426 3.59717 0.536602)
(1.70516 3.59682 0.536602)
(1.70827 3.59564 0.504207)
(1.73537 3.55884 0.536602)
(1.73556 3.55763 0.536602)
(1.7355 3.55803 0.536602)
(1.73558 3.55742 0.536602)
(1.73037 3.57479 0.411828)
(1.72964 3.57579 0.412)
(1.7267 3.57975 0.411744)
(1.72657 3.57993 0.411712)
(1.73243 3.57052 0.411857)
(1.73173 3.57231 0.411704)
(1.73328 3.56802 0.413226)
(1.73188 3.57195 0.411716)
(1.72871 3.57705 0.412205)
(1.72738 3.57884 0.411903)
(1.72748 3.57871 0.411925)
(1.72728 3.57897 0.41188)
(1.72788 3.57816 0.412019)
(1.72795 3.57807 0.412035)
(1.72683 3.57958 0.411774)
(1.72756 3.57859 0.411945)
(1.72695 3.57941 0.411803)
(1.72707 3.57926 0.41183)
(1.72718 3.57911 0.411856)
(1.72765 3.57848 0.411965)
)


// edges:

498
(
(20 18)
(252 28)
(27 29)
(253 28)
(254 31)
(31 32)
(35 255)
(255 24)
(38 36)
(39 37)
(107 108)
(109 20)
(20 256)
(111 18)
(20 110)
(118 257)
(257 258)
(259 260)
(258 261)
(260 262)
(263 259)
(262 264)
(264 120)
(265 263)
(261 265)
(119 122)
(266 119)
(117 18)
(19 152)
(11 10)
(129 132)
(132 151)
(130 132)
(150 16)
(8 7)
(10 267)
(267 11)
(268 269)
(270 271)
(269 270)
(272 273)
(15 268)
(271 272)
(273 16)
(14 274)
(275 17)
(276 277)
(274 276)
(277 278)
(279 19)
(19 275)
(278 279)
(280 23)
(281 282)
(283 252)
(284 253)
(282 285)
(285 283)
(284 281)
(31 286)
(286 287)
(288 280)
(32 289)
(287 290)
(289 288)
(290 254)
(24 35)
(36 37)
(36 39)
(38 0)
(0 36)
(39 40)
(0 41)
(38 42)
(43 40)
(291 44)
(44 45)
(292 293)
(294 292)
(68 294)
(293 291)
(1 107)
(295 296)
(297 298)
(18 108)
(108 295)
(296 111)
(299 20)
(112 300)
(256 2)
(2 301)
(110 1)
(1 20)
(20 2)
(113 108)
(110 299)
(2 109)
(109 301)
(300 302)
(302 107)
(303 111)
(117 303)
(304 305)
(306 304)
(307 308)
(119 307)
(297 309)
(120 116)
(308 120)
(305 310)
(309 311)
(121 298)
(311 312)
(312 313)
(313 306)
(122 266)
(122 314)
(314 310)
(18 120)
(68 151)
(135 151)
(130 133)
(5 3)
(6 4)
(7 162)
(163 9)
(11 8)
(12 163)
(162 164)
(165 12)
(13 166)
(167 14)
(14 168)
(166 169)
(169 165)
(170 167)
(171 170)
(168 172)
(7 173)
(164 7)
(174 171)
(173 174)
(175 12)
(176 177)
(178 176)
(179 180)
(177 179)
(12 178)
(180 13)
(181 175)
(9 181)
(182 183)
(172 14)
(183 13)
(184 182)
(185 184)
(186 185)
(18 186)
(21 187)
(187 22)
(23 15)
(13 188)
(26 154)
(189 190)
(191 189)
(190 192)
(193 194)
(194 195)
(195 27)
(27 30)
(30 29)
(28 196)
(196 197)
(197 193)
(198 28)
(192 198)
(199 200)
(31 33)
(33 32)
(24 34)
(201 31)
(202 35)
(35 201)
(188 24)
(29 203)
(204 199)
(205 202)
(203 205)
(26 156)
(37 38)
(206 207)
(208 209)
(40 37)
(210 208)
(211 210)
(212 211)
(213 191)
(209 213)
(41 212)
(42 41)
(207 43)
(45 206)
(200 204)
(214 105)
(215 113)
(216 215)
(114 214)
(112 216)
(217 112)
(34 218)
(218 121)
(121 219)
(34 18)
(219 34)
(113 217)
(75 220)
(221 222)
(222 223)
(224 225)
(226 224)
(227 68)
(228 221)
(225 228)
(223 227)
(229 230)
(231 226)
(230 232)
(232 231)
(233 234)
(6 5)
(5 21)
(234 229)
(22 233)
(73 21)
(140 22)
(140 46)
(235 236)
(236 237)
(237 238)
(238 235)
(239 240)
(240 241)
(241 239)
(23 242)
(242 32)
(243 15)
(33 243)
(30 33)
(244 30)
(42 244)
(40 38)
(45 43)
(151 44)
(152 8)
(7 245)
(245 246)
(246 247)
(247 248)
(248 249)
(249 250)
(250 14)
(251 44)
(150 251)
(11 152)
(17 135)
(132 126)
(4 220)
(3 4)
(4 5)
(153 6)
(3 153)
(9 10)
(16 9)
(17 20)
(22 21)
(25 26)
(154 155)
(155 25)
(156 25)
(46 47)
(47 48)
(48 46)
(49 47)
(46 49)
(49 50)
(50 47)
(157 51)
(53 52)
(54 53)
(49 56)
(55 158)
(57 58)
(58 3)
(3 57)
(57 59)
(59 58)
(60 59)
(57 60)
(61 62)
(63 61)
(62 63)
(61 64)
(64 62)
(64 65)
(66 64)
(65 66)
(64 67)
(67 65)
(61 68)
(53 69)
(69 52)
(70 69)
(53 70)
(71 72)
(73 71)
(72 73)
(71 74)
(74 72)
(71 59)
(59 74)
(75 76)
(76 77)
(77 75)
(78 76)
(75 78)
(78 79)
(79 76)
(80 78)
(75 80)
(80 79)
(80 74)
(74 79)
(3 71)
(73 3)
(58 71)
(67 54)
(81 67)
(54 81)
(67 82)
(82 54)
(83 84)
(84 69)
(158 83)
(83 55)
(55 85)
(85 83)
(47 86)
(86 48)
(47 60)
(60 86)
(50 60)
(73 80)
(75 73)
(72 80)
(87 88)
(88 89)
(89 87)
(90 88)
(87 90)
(91 92)
(92 93)
(93 91)
(94 92)
(91 94)
(97 95)
(95 96)
(96 97)
(98 99)
(99 90)
(90 98)
(93 99)
(98 93)
(99 88)
(94 100)
(101 89)
(102 100)
(94 102)
(103 100)
(102 103)
(101 104)
(104 89)
(105 101)
(76 95)
(97 76)
(79 95)
(104 105)
(106 104)
(105 106)
(96 100)
(103 96)
(95 100)
(20 114)
(115 116)
(116 117)
(117 115)
(115 118)
(118 116)
(123 82)
(123 70)
(70 82)
(124 70)
(123 124)
(124 125)
(125 69)
(69 124)
(126 125)
(124 126)
(126 123)
(130 128)
(129 130)
(128 129)
(131 128)
(130 131)
(132 127)
(133 132)
(127 99)
(134 133)
(132 131)
(131 127)
(133 131)
(134 131)
(134 128)
(159 128)
(135 159)
(84 136)
(137 84)
(138 157)
(52 137)
(136 85)
(55 136)
(84 85)
(46 139)
(160 46)
(48 139)
(56 46)
(160 56)
(68 138)
(139 140)
(21 6)
(139 6)
(87 106)
(106 141)
(141 87)
(87 104)
(91 142)
(142 143)
(143 91)
(91 98)
(98 142)
(102 143)
(143 144)
(144 102)
(102 91)
(68 145)
(145 138)
(68 63)
(63 145)
(98 141)
(141 142)
(98 87)
(138 51)
(96 144)
(146 96)
(96 102)
(76 146)
(146 77)
(97 146)
(137 147)
(147 84)
(52 147)
(148 84)
(147 148)
(148 69)
(147 69)
(138 149)
(149 51)
(81 65)
(145 149)
(66 62)
(161 150)
(151 161)
(16 151)
(17 114)
(127 130)
(130 99)
(130 88)
(129 88)
(82 53)
(51 81)
(129 135)
(149 81)
(149 65)
(145 66)
(66 149)
(63 66)
(151 150)
(16 10)
(135 128)
)

// * * * * * * * * * * * * * * * * * * * * * * * * * * * * * * * * * * * * * //


// ************************************************************************* //
