/*--------------------------------*- C++ -*----------------------------------*\
| =========                 |                                                 |
| \\      /  F ield         | OpenFOAM: The Open Source CFD Toolbox           |
|  \\    /   O peration     | Version:  2.2.x                                 |
|   \\  /    A nd           | Web:      www.OpenFOAM.org                      |
|    \\/     M anipulation  |                                                 |
\*---------------------------------------------------------------------------*/
FoamFile
{
    version     2.0;
    format      ascii;
    class       featureEdgeMesh;
    location    "constant/triSurface";
    object      lowerleg_left_front.eMesh;
}
// * * * * * * * * * * * * * * * * * * * * * * * * * * * * * * * * * * * * * //


// points:

112
(
(1.91227 3.5003 0.411602)
(1.89788 3.50666 0.340816)
(1.87969 3.51852 0.342658)
(1.93178 3.55436 0.0916016)
(1.95503 3.52477 0.536602)
(1.95961 3.53693 0.536602)
(1.96118 3.54504 0.536602)
(1.96143 3.55753 0.411602)
(1.92512 3.50843 0.250999)
(1.91218 3.50606 0.251007)
(1.89715 3.503 0.411602)
(1.88738 3.53171 0.0916016)
(1.89988 3.5164 0.0916016)
(1.87522 3.52409 0.343261)
(1.89775 3.50619 0.348841)
(1.89808 3.50689 0.330839)
(1.8978 3.50639 0.345532)
(1.89783 3.50652 0.343464)
(1.89784 3.50653 0.343257)
(1.89785 3.50657 0.342686)
(1.89786 3.5066 0.342063)
(1.88508 3.51356 0.342688)
(1.91251 3.50407 0.34206)
(1.88485 3.54033 0.0916016)
(1.95043 3.55825 0.251261)
(1.93897 3.50794 0.411602)
(1.96177 3.54585 0.411602)
(1.9218 3.52095 0.0916016)
(1.92147 3.52068 0.0916016)
(1.92593 3.52646 0.0916016)
(1.92892 3.53277 0.0916016)
(1.93132 3.54318 0.0916016)
(1.93165 3.54566 0.0916016)
(1.92245 3.52181 0.0916016)
(1.9252 3.52549 0.0916016)
(1.92905 3.53324 0.0916016)
(1.9264 3.52744 0.0916016)
(1.86951 3.52712 0.536602)
(1.90479 3.501 0.536602)
(1.88418 3.50989 0.536602)
(1.86539 3.53812 0.536602)
(1.93161 3.55431 0.0916016)
(1.95954 3.56574 0.536602)
(1.96137 3.5533 0.536602)
(1.88525 3.54045 0.0916016)
(1.95878 3.5327 0.536602)
(1.93646 3.50644 0.411602)
(1.92821 3.50282 0.411602)
(1.95482 3.52427 0.411602)
(1.94371 3.51136 0.411602)
(1.96097 3.54024 0.411602)
(1.95485 3.52432 0.411602)
(1.96198 3.54915 0.536602)
(1.87522 3.52408 0.343468)
(1.8752 3.52406 0.343882)
(1.87514 3.52398 0.345536)
(1.87479 3.52347 0.355463)
(1.87432 3.5228 0.368699)
(1.87502 3.52381 0.348845)
(1.88057 3.52676 0.217357)
(1.92782 3.50469 0.372028)
(1.92782 3.50469 0.372002)
(1.87807 3.52514 0.280311)
(1.92007 3.50465 0.342682)
(1.92006 3.50469 0.342059)
(1.92006 3.50475 0.340813)
(1.94791 3.51523 0.411602)
(1.93085 3.53965 0.0916016)
(1.92799 3.53079 0.0916016)
(1.9595 3.53462 0.411602)
(1.89783 3.50649 0.343878)
(1.91251 3.50413 0.340814)
(1.91257 3.50432 0.330832)
(1.89918 3.50872 0.251027)
(1.88513 3.51366 0.340819)
(1.89117 3.50955 0.342687)
(1.89116 3.50952 0.343259)
(1.89115 3.5095 0.343465)
(1.88507 3.51353 0.34326)
(1.96078 3.55733 0.536602)
(1.94365 3.51142 0.536602)
(1.94993 3.5176 0.536602)
(1.92821 3.50282 0.536602)
(1.93635 3.50642 0.536602)
(1.96142 3.55759 0.412566)
(1.91876 3.5066 0.251)
(1.91694 3.51696 0.0916016)
(1.91297 3.51512 0.0916016)
(1.89744 3.50501 0.368696)
(1.8926 3.52262 0.0916016)
(1.90872 3.51433 0.0916016)
(1.90423 3.51475 0.0916016)
(1.91243 3.5024 0.368694)
(1.89754 3.5054 0.362078)
(1.91249 3.50365 0.348839)
(1.9125 3.50386 0.34553)
(1.9125 3.50396 0.343875)
(1.9125 3.50399 0.343462)
(1.9125 3.504 0.343255)
(1.91245 3.50282 0.362076)
(1.91251 3.50404 0.342683)
(1.89599 3.5191 0.0916016)
(1.89121 3.50965 0.340818)
(1.87702 3.53696 0.217394)
(1.86638 3.53463 0.411602)
(1.93182 3.54692 0.0916016)
(1.95747 3.55963 0.331331)
(1.95774 3.54839 0.331371)
(1.93151 3.5446 0.0916016)
(1.91634 3.50042 0.536602)
(1.87591 3.51761 0.536602)
(1.89394 3.50425 0.536602)
)


// edges:

145
(
(8 9)
(12 8)
(70 16)
(17 70)
(18 17)
(21 13)
(22 71)
(72 9)
(73 15)
(71 72)
(74 13)
(75 18)
(76 21)
(77 78)
(21 75)
(24 26)
(79 42)
(43 79)
(44 41)
(40 42)
(34 33)
(30 36)
(39 38)
(37 39)
(41 32)
(80 81)
(5 6)
(82 83)
(83 80)
(81 4)
(84 7)
(85 8)
(9 85)
(86 87)
(10 88)
(89 11)
(90 91)
(91 12)
(92 0)
(14 93)
(94 95)
(95 96)
(97 98)
(99 94)
(96 97)
(98 100)
(20 1)
(1 15)
(0 22)
(9 0)
(73 10)
(87 90)
(74 2)
(12 101)
(100 22)
(93 88)
(92 99)
(101 89)
(2 21)
(13 2)
(102 1)
(20 102)
(17 77)
(78 76)
(103 104)
(23 103)
(3 105)
(24 3)
(106 24)
(28 86)
(107 26)
(7 106)
(108 31)
(32 108)
(105 32)
(29 27)
(30 29)
(109 82)
(38 109)
(37 110)
(111 38)
(39 111)
(110 39)
(40 37)
(104 40)
(3 41)
(42 84)
(4 45)
(46 47)
(48 49)
(50 51)
(45 5)
(6 52)
(7 50)
(49 46)
(53 54)
(54 55)
(56 57)
(58 56)
(11 59)
(55 58)
(60 61)
(13 53)
(10 14)
(16 10)
(59 62)
(63 64)
(8 63)
(62 13)
(65 8)
(64 65)
(14 16)
(11 23)
(57 13)
(13 11)
(27 28)
(26 7)
(25 60)
(47 25)
(25 66)
(31 67)
(33 27)
(29 34)
(61 25)
(35 30)
(67 35)
(66 48)
(36 29)
(30 68)
(69 26)
(51 69)
(4 5)
(6 43)
(11 44)
(33 28)
(36 34)
(35 68)
(31 35)
(52 43)
(44 23)
(15 18)
(15 19)
(19 18)
(15 20)
(20 19)
)

// * * * * * * * * * * * * * * * * * * * * * * * * * * * * * * * * * * * * * //


// ************************************************************************* //
