/*--------------------------------*- C++ -*----------------------------------*\
| =========                 |                                                 |
| \\      /  F ield         | OpenFOAM: The Open Source CFD Toolbox           |
|  \\    /   O peration     | Version:  2.2.x                                 |
|   \\  /    A nd           | Web:      www.OpenFOAM.org                      |
|    \\/     M anipulation  |                                                 |
\*---------------------------------------------------------------------------*/
FoamFile
{
    version     2.0;
    format      ascii;
    class       featureEdgeMesh;
    location    "constant/triSurface";
    object      neck_front.eMesh;
}
// * * * * * * * * * * * * * * * * * * * * * * * * * * * * * * * * * * * * * //


// points:

43
(
(1.8 3.48227 1.41066)
(1.82371 3.48971 1.40585)
(1.84302 3.51048 1.47597)
(1.83934 3.49859 1.47433)
(1.842 3.51679 1.41274)
(1.84899 3.52736 1.41805)
(1.8 3.47326 1.46578)
(1.77353 3.49226 1.40613)
(1.82131 3.4828 1.47164)
(1.82727 3.48801 1.47253)
(1.75101 3.52736 1.41805)
(1.75698 3.51048 1.47597)
(1.84886 3.52736 1.41807)
(1.83075 3.4899 1.47339)
(1.80142 3.47366 1.46624)
(1.93178 3.55436 0.0916016)
(1.93161 3.55431 0.0916016)
(1.93165 3.54566 0.0916016)
(1.93182 3.54692 0.0916016)
(1.84896 3.52737 1.41804)
(1.78873 3.51631 1.45598)
(1.84885 3.52735 1.4181)
(1.79717 3.4741 1.46669)
(1.79858 3.47366 1.46624)
(1.79406 3.47766 1.43797)
(1.80594 3.47766 1.43797)
(1.84249 3.5185 1.44638)
(1.84491 3.52254 1.43205)
(1.76478 3.50428 1.40848)
(1.758 3.51679 1.41274)
(1.76066 3.49859 1.47433)
(1.77869 3.4828 1.47164)
(1.78617 3.48512 1.40706)
(1.79579 3.47474 1.45232)
(1.77629 3.48971 1.40585)
(1.77935 3.4876 1.40586)
(1.8 3.47597 1.43794)
(1.80421 3.47474 1.45232)
(1.81383 3.48512 1.40706)
(1.82899 3.49504 1.40653)
(1.82065 3.4876 1.40586)
(1.75751 3.5185 1.44638)
(1.75509 3.52254 1.43205)
)


// edges:

56
(
(24 6)
(25 6)
(8 9)
(2 11)
(10 12)
(3 2)
(2 26)
(26 27)
(27 5)
(28 29)
(30 31)
(0 32)
(6 33)
(31 6)
(34 7)
(32 35)
(6 36)
(7 28)
(35 34)
(24 33)
(6 37)
(37 25)
(1 8)
(38 0)
(39 1)
(1 40)
(40 38)
(4 39)
(29 10)
(11 30)
(41 11)
(10 42)
(42 41)
(6 11)
(7 0)
(5 4)
(9 3)
(15 16)
(16 17)
(17 18)
(18 15)
(8 3)
(19 4)
(7 19)
(12 7)
(20 21)
(21 12)
(5 20)
(13 22)
(22 23)
(23 13)
(13 9)
(8 13)
(6 8)
(6 14)
(14 8)
)

// * * * * * * * * * * * * * * * * * * * * * * * * * * * * * * * * * * * * * //


// ************************************************************************* //
