/*--------------------------------*- C++ -*----------------------------------*\
| =========                 |                                                 |
| \\      /  F ield         | OpenFOAM: The Open Source CFD Toolbox           |
|  \\    /   O peration     | Version:  2.2.x                                 |
|   \\  /    A nd           | Web:      www.OpenFOAM.org                      |
|    \\/     M anipulation  |                                                 |
\*---------------------------------------------------------------------------*/
FoamFile
{
    version     2.0;
    format      ascii;
    class       featureEdgeMesh;
    location    "constant/triSurface";
    object      neck_back.eMesh;
}
// * * * * * * * * * * * * * * * * * * * * * * * * * * * * * * * * * * * * * //


// points:

144
(
(1.84221 3.54488 1.46518)
(1.75779 3.54488 1.46518)
(1.8581 3.56457 1.42684)
(1.7419 3.56457 1.42684)
(1.85864 3.55997 1.42641)
(1.85589 3.56233 1.42921)
(1.84491 3.52254 1.43205)
(1.84997 3.55667 1.43745)
(1.84997 3.55658 1.43743)
(1.84997 3.5564 1.43739)
(1.84998 3.55673 1.43745)
(1.84414 3.55089 1.4506)
(1.83905 3.54661 1.48091)
(1.81062 3.56086 1.48065)
(1.84988 3.55669 1.43758)
(1.83034 3.57734 1.42621)
(1.8 3.58414 1.42485)
(1.83934 3.54595 1.48082)
(1.84302 3.51048 1.47597)
(1.84281 3.53507 1.47934)
(1.84031 3.54353 1.48049)
(1.83991 3.54457 1.48063)
(1.83977 3.54492 1.48068)
(1.85518 3.53851 1.42264)
(1.85277 3.55924 1.4331)
(1.8518 3.55839 1.43451)
(1.85378 3.56033 1.43178)
(1.84899 3.52736 1.41805)
(1.75012 3.55669 1.43758)
(1.76095 3.54661 1.48091)
(1.78938 3.56086 1.48065)
(1.76967 3.57734 1.42621)
(1.75586 3.55089 1.4506)
(1.74172 3.56344 1.42675)
(1.74181 3.56401 1.42679)
(1.75003 3.55658 1.43743)
(1.76066 3.54595 1.48082)
(1.74137 3.56001 1.42642)
(1.75003 3.55667 1.43745)
(1.74189 3.56453 1.42683)
(1.75719 3.53507 1.47934)
(1.75101 3.52736 1.41805)
(1.75982 3.54388 1.48054)
(1.76009 3.54457 1.48063)
(1.75698 3.51048 1.47597)
(1.75969 3.54353 1.48049)
(1.84885 3.52735 1.4181)
(1.84886 3.52736 1.41807)
(1.74188 3.56444 1.42683)
(1.74188 3.56448 1.42683)
(1.74188 3.5645 1.42683)
(1.84892 3.52736 1.41806)
(1.8 3.56238 1.4647)
(1.8 3.56866 1.45102)
(1.8 3.55884 1.47909)
(1.8 3.57605 1.43775)
(1.81518 3.58109 1.42605)
(1.83949 3.54561 1.48077)
(1.84071 3.54245 1.48034)
(1.84045 3.54317 1.48044)
(1.8412 3.541 1.48015)
(1.83963 3.54526 1.48073)
(1.84018 3.54388 1.48054)
(1.84913 3.52763 1.41816)
(1.78482 3.58109 1.42605)
(1.7418 3.56396 1.42679)
(1.74183 3.56415 1.4268)
(1.74185 3.5643 1.42682)
(1.74186 3.56437 1.42682)
(1.76051 3.54561 1.48077)
(1.75929 3.54245 1.48034)
(1.7588 3.541 1.48015)
(1.76023 3.54492 1.48068)
(1.75955 3.54317 1.48044)
(1.76037 3.54526 1.48073)
(1.93178 3.55436 0.0916016)
(1.93161 3.55431 0.0916016)
(1.93165 3.54566 0.0916016)
(1.93182 3.54692 0.0916016)
(1.80074 3.55933 1.48088)
(1.84896 3.52737 1.41804)
(1.842 3.51679 1.41274)
(1.7416 3.56229 1.42664)
(1.74193 3.56455 1.42683)
(1.85378 3.56024 1.43176)
(1.85042 3.55659 1.4366)
(1.84425 3.55072 1.45062)
(1.84441 3.55053 1.45064)
(1.84416 3.55083 1.45061)
(1.85 3.55602 1.43733)
(1.84406 3.55084 1.45081)
(1.84076 3.54742 1.4655)
(1.84509 3.5477 1.45047)
(1.84247 3.54548 1.4653)
(1.85094 3.55644 1.43579)
(1.8518 3.55826 1.43448)
(1.85752 3.55938 1.42765)
(1.85808 3.5597 1.42703)
(1.85378 3.56039 1.43179)
(1.85303 3.55732 1.43291)
(1.85414 3.55779 1.43155)
(1.85053 3.55362 1.43724)
(1.85423 3.55737 1.43154)
(1.85589 3.56239 1.42922)
(1.85751 3.55943 1.42766)
(1.85524 3.55844 1.43023)
(1.85527 3.55829 1.43022)
(1.85638 3.55892 1.42893)
(1.8564 3.55882 1.42893)
(1.75594 3.55084 1.45081)
(1.75002 3.55673 1.43745)
(1.75491 3.5477 1.45047)
(1.75924 3.54742 1.4655)
(1.75753 3.54548 1.4653)
(1.75575 3.55072 1.45062)
(1.75559 3.55053 1.45064)
(1.75003 3.5564 1.43739)
(1.75584 3.55083 1.45061)
(1.84249 3.5185 1.44638)
(1.85482 3.56127 1.43046)
(1.84466 3.55014 1.45066)
(1.83132 3.5544 1.48162)
(1.82146 3.55933 1.48153)
(1.84482 3.57212 1.42688)
(1.842 3.54675 1.46541)
(1.84418 3.52283 1.47767)
(1.84254 3.54578 1.46535)
(1.85753 3.54594 1.4244)
(1.85297 3.55758 1.43292)
(1.85196 3.55687 1.43432)
(1.85189 3.55718 1.43434)
(1.75518 3.57212 1.42688)
(1.76868 3.5544 1.48162)
(1.77854 3.55933 1.48153)
(1.758 3.54675 1.46541)
(1.74158 3.56231 1.42665)
(1.75582 3.52283 1.47767)
(1.74482 3.53851 1.42264)
(1.74247 3.54594 1.4244)
(1.75509 3.52254 1.43205)
(1.75746 3.54578 1.46535)
(1.74127 3.55527 1.42587)
(1.75751 3.5185 1.44638)
(1.75534 3.55014 1.45066)
)


// edges:

185
(
(4 5)
(84 85)
(8 86)
(87 9)
(8 9)
(88 7)
(9 89)
(10 14)
(90 11)
(11 14)
(91 17)
(92 0)
(20 0)
(22 93)
(21 0)
(89 94)
(95 8)
(24 95)
(96 97)
(10 98)
(99 100)
(7 25)
(25 8)
(101 102)
(103 98)
(26 25)
(104 96)
(105 106)
(107 108)
(32 109)
(28 32)
(110 28)
(1 111)
(36 112)
(42 1)
(43 113)
(1 45)
(35 114)
(115 116)
(117 38)
(44 18)
(41 47)
(97 4)
(6 118)
(5 119)
(86 7)
(9 120)
(87 8)
(88 10)
(12 121)
(121 122)
(123 2)
(122 13)
(14 90)
(2 14)
(15 123)
(2 10)
(124 11)
(2 4)
(18 125)
(118 18)
(92 20)
(125 19)
(93 21)
(22 126)
(8 24)
(101 4)
(26 7)
(127 23)
(4 127)
(108 104)
(100 105)
(25 24)
(24 84)
(106 107)
(5 26)
(128 99)
(129 128)
(130 129)
(94 130)
(24 85)
(28 3)
(3 131)
(132 29)
(133 132)
(30 133)
(109 28)
(134 32)
(33 34)
(135 33)
(37 135)
(134 36)
(39 3)
(40 136)
(137 138)
(139 41)
(41 137)
(113 42)
(140 43)
(141 37)
(44 142)
(138 141)
(136 44)
(111 45)
(142 139)
(115 35)
(117 110)
(38 114)
(143 116)
(31 3)
(131 31)
(52 53)
(13 54)
(55 16)
(53 55)
(56 15)
(17 12)
(16 56)
(57 17)
(21 22)
(58 59)
(60 58)
(22 61)
(62 21)
(20 62)
(61 57)
(19 60)
(59 20)
(27 6)
(63 27)
(23 63)
(54 30)
(64 16)
(16 52)
(31 64)
(33 65)
(65 34)
(34 66)
(66 67)
(68 48)
(67 68)
(29 36)
(36 69)
(50 39)
(70 71)
(72 43)
(73 70)
(71 40)
(45 73)
(42 45)
(43 42)
(74 72)
(69 74)
(75 76)
(76 77)
(77 78)
(78 75)
(79 30)
(19 12)
(13 79)
(29 40)
(27 80)
(80 81)
(81 27)
(46 6)
(82 37)
(33 82)
(39 83)
(83 31)
(31 16)
(37 33)
(16 15)
(23 27)
(27 16)
(16 47)
(48 35)
(35 49)
(49 38)
(38 50)
(46 47)
(47 51)
(51 46)
(33 31)
(33 39)
(39 31)
)

// * * * * * * * * * * * * * * * * * * * * * * * * * * * * * * * * * * * * * //


// ************************************************************************* //
