/*--------------------------------*- C++ -*----------------------------------*\
| =========                 |                                                 |
| \\      /  F ield         | OpenFOAM: The Open Source CFD Toolbox           |
|  \\    /   O peration     | Version:  2.2.x                                 |
|   \\  /    A nd           | Web:      www.OpenFOAM.org                      |
|    \\/     M anipulation  |                                                 |
\*---------------------------------------------------------------------------*/
FoamFile
{
    version     2.0;
    format      ascii;
    class       featureEdgeMesh;
    location    "constant/triSurface";
    object      upperarm_left_back.eMesh;
}
// * * * * * * * * * * * * * * * * * * * * * * * * * * * * * * * * * * * * * //


// points:

73
(
(1.94219 3.55032 1.29686)
(1.98604 3.59682 1.32539)
(2.00428 3.60607 1.09619)
(1.95746 3.55918 1.29713)
(1.95726 3.55033 1.29693)
(2.00361 3.58855 1.09729)
(2.07266 3.58767 1.09734)
(1.94219 3.53506 1.39432)
(1.97454 3.5932 1.31402)
(1.9694 3.58885 1.30894)
(1.96492 3.58296 1.30451)
(1.96134 3.57579 1.30096)
(1.98014 3.5959 1.31956)
(2.00322 3.59734 1.09674)
(1.99179 3.59595 1.33108)
(2.00671 3.58373 1.34583)
(2.00243 3.58916 1.3416)
(1.95884 3.56777 1.29849)
(1.99741 3.59331 1.33664)
(2.01433 3.56199 1.35336)
(2.01275 3.56984 1.3518)
(2.01017 3.57722 1.34926)
(1.99668 3.59377 1.33591)
(2.00189 3.5897 1.34107)
(1.96888 3.58829 1.30842)
(1.97384 3.59273 1.31333)
(2.00635 3.58427 1.34548)
(1.99087 3.59621 1.33017)
(1.97927 3.5956 1.31869)
(1.985 3.59679 1.32437)
(2.00997 3.57769 1.34905)
(2.01265 3.57019 1.35171)
(1.96457 3.58238 1.30416)
(1.96114 3.57529 1.30077)
(1.95875 3.56741 1.29841)
(1.93178 3.55436 0.0916016)
(1.93161 3.55431 0.0916016)
(1.93165 3.54566 0.0916016)
(1.93182 3.54692 0.0916016)
(1.95744 3.55899 1.29711)
(1.94219 3.5615 1.2982)
(2.01084 3.62243 1.09516)
(2.01614 3.62908 1.09475)
(2.02997 3.63756 1.09421)
(2.03819 3.63874 1.09414)
(2.02257 3.63423 1.09442)
(2.04496 3.63794 1.09419)
(2.0512 3.63568 1.09433)
(2.05682 3.63213 1.09455)
(2.06175 3.62746 1.09485)
(2.06918 3.61549 1.0956)
(2.00683 3.61459 1.09565)
(2.01352 3.54005 1.35256)
(2.07283 3.60162 1.09647)
(1.94219 3.55032 1.39686)
(1.96432 3.54086 1.39456)
(2.00255 3.54268 1.37246)
(1.98512 3.5413 1.38666)
(1.94965 3.55032 1.2969)
(1.94219 3.56559 1.3943)
(1.94219 3.59179 1.37281)
(1.94219 3.59586 1.36408)
(1.94219 3.59754 1.33544)
(1.94219 3.59452 1.32627)
(1.94219 3.58617 1.38055)
(1.94219 3.58976 1.31776)
(1.94219 3.58192 1.30894)
(1.94219 3.57227 1.30228)
(1.94219 3.57911 1.3871)
(1.94219 3.59878 1.34498)
(1.95147 3.55032 1.2969)
(1.95345 3.55033 1.29691)
(1.94219 3.59823 1.35464)
)


// edges:

78
(
(39 4)
(3 39)
(0 7)
(6 5)
(40 0)
(41 42)
(43 44)
(45 43)
(42 45)
(4 5)
(44 46)
(46 47)
(48 49)
(49 50)
(47 48)
(51 41)
(2 51)
(6 52)
(53 6)
(50 53)
(7 54)
(55 7)
(56 57)
(57 55)
(52 56)
(0 58)
(54 59)
(60 61)
(62 63)
(64 60)
(65 66)
(66 67)
(67 40)
(68 64)
(69 62)
(58 70)
(70 71)
(71 4)
(63 65)
(72 69)
(61 72)
(59 68)
(8 9)
(10 11)
(12 8)
(9 10)
(1 12)
(13 2)
(5 13)
(14 1)
(15 16)
(17 3)
(16 18)
(11 17)
(18 14)
(19 20)
(21 15)
(20 21)
(22 23)
(24 25)
(23 26)
(1 27)
(28 29)
(26 30)
(25 28)
(30 31)
(32 24)
(29 1)
(33 32)
(31 19)
(27 22)
(3 34)
(34 33)
(35 36)
(36 37)
(37 38)
(38 35)
(5 2)
)

// * * * * * * * * * * * * * * * * * * * * * * * * * * * * * * * * * * * * * //


// ************************************************************************* //
