/*--------------------------------*- C++ -*----------------------------------*\
| =========                 |                                                 |
| \\      /  F ield         | OpenFOAM: The Open Source CFD Toolbox           |
|  \\    /   O peration     | Version:  2.2.x                                 |
|   \\  /    A nd           | Web:      www.OpenFOAM.org                      |
|    \\/     M anipulation  |                                                 |
\*---------------------------------------------------------------------------*/
FoamFile
{
    version     2.0;
    format      ascii;
    class       featureEdgeMesh;
    location    "constant/triSurface";
    object      upperarm_right_front.eMesh;
}
// * * * * * * * * * * * * * * * * * * * * * * * * * * * * * * * * * * * * * //


// points:

72
(
(1.65781 3.50275 1.33712)
(1.65781 3.50413 1.33162)
(1.65781 3.53163 1.393)
(1.65781 3.52153 1.3871)
(1.65781 3.55032 1.29686)
(1.65781 3.54061 1.29787)
(1.65781 3.5111 1.31767)
(1.65781 3.53152 1.30077)
(1.65781 3.50182 1.34685)
(1.65781 3.50415 1.33157)
(1.64274 3.55033 1.29693)
(1.65781 3.50182 1.34698)
(1.59455 3.57997 1.09783)
(1.59639 3.58855 1.09729)
(1.65781 3.53503 1.39407)
(1.65781 3.53515 1.39411)
(1.65781 3.54074 1.39587)
(1.65781 3.53498 1.39406)
(1.52733 3.58778 1.09733)
(1.65781 3.5408 1.39528)
(1.59565 3.58854 1.09729)
(1.65781 3.53486 1.39353)
(1.64623 3.50392 1.33693)
(1.65781 3.50978 1.37432)
(1.65781 3.5054 1.36572)
(1.65781 3.51581 1.38199)
(1.65781 3.50272 1.35648)
(1.65781 3.51604 1.3115)
(1.65781 3.51007 1.31897)
(1.65781 3.50556 1.3276)
(1.65781 3.52326 1.30537)
(1.65781 3.53502 1.29965)
(1.65781 3.50252 1.33948)
(1.65782 3.53511 1.3941)
(1.65781 3.5349 1.39403)
(1.65781 3.53673 1.39461)
(1.65781 3.50413 1.36211)
(1.65781 3.51081 1.37587)
(1.65781 3.51105 1.31752)
(1.65781 3.52164 1.30655)
(1.65781 3.53512 1.39434)
(1.65781 3.53502 1.29941)
(1.93178 3.55436 0.0916016)
(1.93161 3.55431 0.0916016)
(1.93165 3.54566 0.0916016)
(1.93182 3.54692 0.0916016)
(1.65781 3.53401 1.39375)
(1.65781 3.51954 1.36281)
(1.64155 3.54063 1.2981)
(1.639 3.53169 1.30064)
(1.6352 3.52386 1.30439)
(1.63029 3.51745 1.30924)
(1.65781 3.50386 1.33252)
(1.65781 3.504 1.33204)
(1.65781 3.50407 1.3318)
(1.65781 3.52324 1.38834)
(1.65035 3.55032 1.2969)
(1.64655 3.55033 1.29691)
(1.54982 3.55453 1.09942)
(1.54392 3.55799 1.0992)
(1.55744 3.55224 1.09956)
(1.58048 3.55863 1.09916)
(1.57346 3.55439 1.09943)
(1.53884 3.56252 1.09892)
(1.53126 3.57414 1.09819)
(1.56566 3.55217 1.09957)
(1.59126 3.57187 1.09833)
(1.58649 3.56456 1.09879)
(1.58648 3.54005 1.35256)
(1.59745 3.54268 1.37246)
(1.63568 3.54086 1.39456)
(1.61488 3.5413 1.38666)
)


// edges:

92
(
(7 5)
(48 49)
(49 50)
(10 48)
(50 51)
(19 16)
(4 19)
(18 20)
(15 2)
(14 2)
(17 2)
(14 17)
(52 53)
(53 54)
(0 52)
(54 1)
(2 55)
(4 56)
(55 3)
(56 57)
(57 10)
(11 8)
(58 59)
(60 58)
(61 62)
(63 64)
(62 65)
(66 67)
(65 60)
(59 63)
(10 13)
(67 61)
(12 66)
(68 69)
(14 15)
(16 2)
(70 16)
(69 71)
(71 70)
(64 18)
(18 68)
(1 22)
(23 24)
(3 25)
(25 23)
(24 26)
(5 4)
(6 27)
(28 6)
(29 28)
(27 30)
(7 31)
(31 5)
(22 9)
(32 0)
(8 32)
(9 29)
(26 11)
(30 7)
(33 14)
(15 33)
(16 15)
(17 34)
(34 2)
(16 35)
(35 19)
(8 0)
(36 11)
(37 36)
(1 9)
(9 38)
(3 37)
(38 39)
(40 3)
(39 41)
(41 4)
(19 40)
(42 43)
(43 44)
(44 45)
(45 42)
(46 3)
(2 46)
(17 47)
(47 21)
(21 14)
(15 6)
(6 21)
(21 15)
(13 12)
(13 20)
(20 12)
)

// * * * * * * * * * * * * * * * * * * * * * * * * * * * * * * * * * * * * * //


// ************************************************************************* //
