/*--------------------------------*- C++ -*----------------------------------*\
| =========                 |                                                 |
| \\      /  F ield         | OpenFOAM: The Open Source CFD Toolbox           |
|  \\    /   O peration     | Version:  2.2.x                                 |
|   \\  /    A nd           | Web:      www.OpenFOAM.org                      |
|    \\/     M anipulation  |                                                 |
\*---------------------------------------------------------------------------*/
FoamFile
{
    version     2.0;
    format      ascii;
    class       featureEdgeMesh;
    location    "constant/triSurface";
    object      upperarm_right_back.eMesh;
}
// * * * * * * * * * * * * * * * * * * * * * * * * * * * * * * * * * * * * * //


// points:

89
(
(1.59639 3.58855 1.09729)
(1.65781 3.54074 1.39587)
(1.65781 3.55032 1.39686)
(1.61396 3.59682 1.32539)
(1.64254 3.55918 1.29713)
(1.65781 3.58977 1.31777)
(1.65781 3.57911 1.3871)
(1.64274 3.55033 1.29693)
(1.65781 3.55032 1.29686)
(1.59317 3.61459 1.09565)
(1.52733 3.58778 1.09733)
(1.59678 3.59734 1.09674)
(1.65781 3.5408 1.39528)
(1.59565 3.58854 1.09729)
(1.65781 3.56002 1.39585)
(1.63886 3.57529 1.30077)
(1.64125 3.56741 1.29841)
(1.615 3.59679 1.32437)
(1.60333 3.59377 1.33591)
(1.60913 3.59621 1.33017)
(1.59365 3.58427 1.34548)
(1.59811 3.5897 1.34107)
(1.58735 3.57019 1.35171)
(1.59003 3.57769 1.34905)
(1.62073 3.5956 1.31869)
(1.62616 3.59273 1.31333)
(1.63112 3.58829 1.30842)
(1.65781 3.5691 1.39296)
(1.63543 3.58238 1.30416)
(1.58567 3.56199 1.35336)
(1.65781 3.59085 1.3194)
(1.65781 3.59055 1.37478)
(1.65781 3.58458 1.38225)
(1.65781 3.59792 1.33728)
(1.65781 3.59882 1.34691)
(1.65781 3.57736 1.38837)
(1.65781 3.59507 1.36615)
(1.65781 3.59789 1.35664)
(1.65781 3.56901 1.30072)
(1.65781 3.57739 1.30537)
(1.65781 3.5599 1.29785)
(1.65781 3.59524 1.32801)
(1.65781 3.58481 1.3117)
(1.63866 3.57579 1.30096)
(1.63508 3.58296 1.30451)
(1.62546 3.5932 1.31402)
(1.61986 3.5959 1.31956)
(1.6306 3.58885 1.30894)
(1.64116 3.56777 1.29849)
(1.59572 3.60607 1.09619)
(1.60821 3.59595 1.33108)
(1.58725 3.56984 1.3518)
(1.59329 3.58373 1.34583)
(1.58983 3.57722 1.34926)
(1.60259 3.59331 1.33664)
(1.59757 3.58916 1.3416)
(1.65781 3.56177 1.29827)
(1.65781 3.56569 1.39429)
(1.65781 3.57246 1.30237)
(1.65781 3.58196 1.30897)
(1.65781 3.58605 1.38068)
(1.65781 3.59169 1.37296)
(1.65781 3.59449 1.3262)
(1.65781 3.59584 1.36413)
(1.65781 3.59751 1.33531)
(1.65781 3.59824 1.35455)
(1.65781 3.59878 1.34486)
(1.93178 3.55436 0.0916016)
(1.93161 3.55431 0.0916016)
(1.93165 3.54566 0.0916016)
(1.93182 3.54692 0.0916016)
(1.64256 3.55899 1.29711)
(1.63568 3.54086 1.39456)
(1.59745 3.54268 1.37246)
(1.58648 3.54005 1.35256)
(1.61488 3.5413 1.38666)
(1.64655 3.55033 1.29691)
(1.65035 3.55032 1.2969)
(1.57743 3.63423 1.09442)
(1.58386 3.62908 1.09475)
(1.56181 3.63874 1.09414)
(1.57003 3.63756 1.09421)
(1.58915 3.62243 1.09516)
(1.52723 3.602 1.09644)
(1.55511 3.63796 1.09419)
(1.54892 3.63574 1.09433)
(1.54333 3.63225 1.09455)
(1.53096 3.61583 1.09558)
(1.53842 3.62766 1.09483)
)


// edges:

99
(
(4 71)
(71 7)
(12 8)
(13 10)
(11 13)
(1 72)
(73 74)
(75 73)
(72 75)
(76 77)
(7 76)
(77 8)
(78 79)
(80 81)
(82 9)
(81 78)
(79 82)
(10 83)
(84 80)
(11 0)
(0 7)
(74 10)
(85 84)
(86 85)
(83 87)
(87 88)
(88 86)
(13 0)
(2 1)
(14 2)
(15 16)
(3 17)
(18 19)
(20 21)
(22 23)
(21 18)
(24 25)
(25 26)
(16 4)
(27 14)
(19 3)
(23 20)
(17 24)
(26 28)
(28 15)
(29 22)
(5 30)
(31 32)
(33 34)
(6 35)
(36 31)
(34 37)
(38 39)
(40 38)
(35 27)
(8 40)
(37 36)
(30 41)
(39 42)
(32 6)
(41 33)
(42 5)
(43 44)
(45 46)
(44 47)
(46 3)
(47 45)
(4 48)
(48 43)
(9 49)
(49 11)
(3 50)
(51 29)
(52 53)
(50 54)
(53 51)
(54 55)
(55 52)
(2 12)
(8 56)
(57 2)
(56 58)
(6 57)
(58 59)
(60 6)
(59 5)
(61 60)
(5 62)
(63 61)
(62 64)
(65 63)
(64 66)
(66 65)
(9 11)
(67 68)
(68 69)
(69 70)
(70 67)
(12 1)
)

// * * * * * * * * * * * * * * * * * * * * * * * * * * * * * * * * * * * * * //


// ************************************************************************* //
