/*--------------------------------*- C++ -*----------------------------------*\
| =========                 |                                                 |
| \\      /  F ield         | OpenFOAM: The Open Source CFD Toolbox           |
|  \\    /   O peration     | Version:  2.2.x                                 |
|   \\  /    A nd           | Web:      www.OpenFOAM.org                      |
|    \\/     M anipulation  |                                                 |
\*---------------------------------------------------------------------------*/
FoamFile
{
    version     2.0;
    format      ascii;
    class       featureEdgeMesh;
    location    "constant/triSurface";
    object      upperarm_left_front.eMesh;
}
// * * * * * * * * * * * * * * * * * * * * * * * * * * * * * * * * * * * * * //


// points:

57
(
(2.00361 3.58855 1.09729)
(1.95726 3.55033 1.29693)
(2.07266 3.58767 1.09734)
(1.94219 3.53506 1.39432)
(1.95437 3.54164 1.2982)
(1.94231 3.50409 1.33191)
(1.94219 3.511 1.31761)
(1.9423 3.50412 1.3318)
(1.94223 3.50414 1.33166)
(1.94219 3.50238 1.33932)
(1.94226 3.50414 1.3317)
(1.94229 3.50413 1.33175)
(1.95345 3.55033 1.29691)
(1.94219 3.55032 1.29686)
(1.94965 3.55032 1.2969)
(1.94225 3.50411 1.33175)
(1.94223 3.50412 1.3317)
(1.94227 3.5041 1.3318)
(1.9422 3.50409 1.33175)
(1.94219 3.5041 1.3317)
(1.94219 3.50389 1.33263)
(1.94219 3.50492 1.33292)
(1.95147 3.55032 1.2969)
(1.94221 3.50412 1.33166)
(1.94219 3.50413 1.33162)
(1.93178 3.55436 0.0916016)
(1.93161 3.55431 0.0916016)
(1.93165 3.54566 0.0916016)
(1.93182 3.54692 0.0916016)
(1.94219 3.50321 1.33563)
(1.94219 3.50366 1.33366)
(1.961 3.53169 1.30064)
(1.9648 3.52386 1.30439)
(1.95844 3.54063 1.2981)
(1.96971 3.51745 1.30924)
(2.01351 3.56456 1.09879)
(2.00873 3.57187 1.09833)
(2.02654 3.55439 1.09943)
(2.01952 3.55863 1.09916)
(2.04256 3.55224 1.09956)
(2.03434 3.55217 1.09957)
(2.05612 3.55802 1.0992)
(2.05018 3.55453 1.09942)
(2.00545 3.57997 1.09783)
(2.01352 3.54005 1.35256)
(2.06879 3.57426 1.09818)
(2.06122 3.5626 1.09891)
(2.00255 3.54268 1.37246)
(1.94219 3.51095 1.37608)
(1.94219 3.52153 1.3871)
(1.94219 3.50182 1.34713)
(1.94219 3.50423 1.36243)
(1.96432 3.54086 1.39456)
(1.94229 3.50405 1.33203)
(1.94219 3.52178 1.30644)
(1.94219 3.5353 1.29931)
(1.98512 3.5413 1.38666)
)


// edges:

74
(
(31 32)
(33 31)
(1 33)
(32 34)
(2 0)
(13 3)
(20 5)
(35 36)
(37 38)
(38 35)
(39 40)
(41 42)
(42 39)
(0 1)
(40 37)
(43 0)
(36 43)
(44 2)
(2 45)
(45 46)
(46 41)
(47 44)
(48 49)
(50 51)
(3 52)
(5 53)
(9 50)
(54 6)
(49 3)
(55 54)
(1 12)
(13 55)
(51 48)
(14 13)
(52 56)
(56 47)
(20 53)
(24 8)
(6 24)
(25 26)
(26 27)
(27 28)
(28 25)
(12 14)
(18 20)
(29 9)
(20 30)
(30 29)
(7 5)
(8 10)
(11 7)
(10 11)
(12 4)
(4 22)
(14 4)
(10 15)
(15 16)
(16 10)
(11 15)
(7 17)
(17 5)
(16 8)
(23 16)
(17 11)
(15 17)
(18 16)
(16 19)
(19 18)
(18 15)
(23 19)
(21 9)
(6 21)
(18 21)
(18 9)
)

// * * * * * * * * * * * * * * * * * * * * * * * * * * * * * * * * * * * * * //


// ************************************************************************* //
