/*--------------------------------*- C++ -*----------------------------------*\
| =========                 |                                                 |
| \\      /  F ield         | OpenFOAM: The Open Source CFD Toolbox           |
|  \\    /   O peration     | Version:  2.2.x                                 |
|   \\  /    A nd           | Web:      www.OpenFOAM.org                      |
|    \\/     M anipulation  |                                                 |
\*---------------------------------------------------------------------------*/
FoamFile
{
    version     2.0;
    format      ascii;
    class       featureEdgeMesh;
    location    "constant/triSurface";
    object      waist_right_front.eMesh;
}
// * * * * * * * * * * * * * * * * * * * * * * * * * * * * * * * * * * * * * //


// points:

162
(
(1.78788 3.44641 0.861345)
(1.80117 3.44206 0.868218)
(1.8012 3.44263 0.866011)
(1.79065 3.44645 0.859341)
(1.66375 3.52631 0.972273)
(1.68992 3.5124 1.07268)
(1.69371 3.48798 1.06738)
(1.6911 3.50013 1.06967)
(1.67202 3.50523 0.966506)
(1.66825 3.51484 0.969135)
(1.66463 3.52407 0.971659)
(1.69022 3.52474 1.07547)
(1.65881 3.54924 0.97293)
(1.66321 3.52883 0.972345)
(1.80108 3.43194 0.912206)
(1.80114 3.44153 0.870472)
(1.72528 3.45685 0.905859)
(1.71564 3.45986 0.91838)
(1.70913 3.4633 0.926467)
(1.75273 3.46017 0.867002)
(1.7366 3.45637 0.890333)
(1.73164 3.45658 0.897131)
(1.77574 3.44742 0.86895)
(1.80059 3.42545 0.954772)
(1.80104 3.44154 0.870467)
(1.80094 3.44155 0.870462)
(1.80097 3.42167 1.01109)
(1.80093 3.4234 1.06752)
(1.80132 3.48106 0.811983)
(1.80142 3.46716 0.823489)
(1.80143 3.46711 0.823571)
(1.79999 3.44722 0.853224)
(1.80082 3.5142 0.797632)
(1.8011 3.49695 0.803202)
(1.80112 3.49691 0.803245)
(1.78958 3.55032 0.796602)
(1.78608 3.55032 0.796602)
(1.80131 3.48112 0.811907)
(1.80142 3.45572 0.83739)
(1.80143 3.45566 0.837511)
(1.80141 3.45573 0.837366)
(1.79656 3.55032 0.796602)
(1.79916 3.55032 0.796602)
(1.7983 3.55032 0.796602)
(1.80133 3.44705 0.85328)
(1.80127 3.44625 0.855189)
(1.80126 3.44543 0.857305)
(1.79307 3.55032 0.796602)
(1.79958 3.55032 0.796602)
(1.80122 3.44544 0.857266)
(1.80126 3.44712 0.853084)
(1.80116 3.44207 0.868168)
(1.80122 3.44467 0.859404)
(1.80128 3.44542 0.857342)
(1.80116 3.44266 0.865913)
(1.80121 3.44394 0.861567)
(1.8013 3.44711 0.853115)
(1.80122 3.44626 0.855153)
(1.80117 3.44395 0.861533)
(1.80114 3.44546 0.857243)
(1.80116 3.44468 0.859374)
(1.67665 3.49762 0.962155)
(1.69455 3.47437 0.94365)
(1.68076 3.49086 0.958288)
(1.8 3.55032 1.07672)
(1.8 3.55032 0.796602)
(1.69007 3.52268 1.07506)
(1.69286 3.49193 1.06813)
(1.71089 3.46207 0.924362)
(1.73947 3.45625 0.886397)
(1.80103 3.42542 0.954766)
(1.7638 3.45299 0.86802)
(1.78833 3.44358 0.869775)
(1.79381 3.42608 0.954811)
(1.79742 3.42571 0.954804)
(1.80034 3.44161 0.870432)
(1.79953 3.44169 0.870392)
(1.80013 3.42548 0.954778)
(1.80074 3.44157 0.870452)
(1.79923 3.42555 0.954788)
(1.79471 3.44233 0.87014)
(1.77234 3.42992 0.954219)
(1.78662 3.42705 0.954736)
(1.79792 3.44188 0.87031)
(1.8008 3.51418 0.797623)
(1.8004 3.5322 0.795385)
(1.80125 3.44465 0.859443)
(1.80132 3.4471 0.853163)
(1.80131 3.4471 0.853137)
(1.80118 3.44328 0.863721)
(1.80118 3.44361 0.862623)
(1.8012 3.44327 0.863755)
(1.80116 3.44297 0.8648)
(1.80122 3.44326 0.863787)
(1.8012 3.44372 0.862293)
(1.80118 3.44296 0.864825)
(1.80137 3.46719 0.823429)
(1.80126 3.48114 0.811865)
(1.80137 3.45575 0.83732)
(1.80077 3.51419 0.797613)
(1.80035 3.53221 0.795381)
(1.80075 3.51419 0.797607)
(1.80105 3.49697 0.803176)
(1.72588 3.45776 0.90479)
(1.68389 3.48711 0.954964)
(1.68244 3.48885 0.956505)
(1.93178 3.55436 0.0916016)
(1.93161 3.55431 0.0916016)
(1.93165 3.54566 0.0916016)
(1.93182 3.54692 0.0916016)
(1.68327 3.48673 0.955929)
(1.80109 3.44154 0.87047)
(1.80081 3.42543 0.954769)
(1.80116 3.44236 0.867036)
(1.80121 3.44713 0.853066)
(1.69681 3.4719 0.941193)
(1.80044 3.53219 0.795396)
(1.70304 3.46462 1.06558)
(1.8006 3.43196 0.912215)
(1.74735 3.43231 1.06941)
(1.77353 3.42476 1.06918)
(1.72352 3.44568 1.06821)
(1.7775 3.44716 0.868059)
(1.77837 3.44703 0.867606)
(1.78658 3.51966 0.804136)
(1.76492 3.46888 0.847731)
(1.7934 3.53316 0.797189)
(1.78453 3.50574 0.811027)
(1.77507 3.48211 0.830092)
(1.78501 3.44649 0.86332)
(1.80115 3.4418 0.869321)
(1.80119 3.44264 0.865967)
(1.80118 3.44265 0.865938)
(1.79332 3.44663 0.85732)
(1.78203 3.4467 0.865253)
(1.77894 3.44701 0.867133)
(1.80117 3.44431 0.86045)
(1.80115 3.44506 0.858305)
(1.80113 3.44586 0.856188)
(1.79275 3.44615 0.85886)
(1.79348 3.44619 0.858354)
(1.77662 3.44729 0.868507)
(1.79126 3.44609 0.859868)
(1.79201 3.44612 0.859365)
(1.78975 3.44609 0.86087)
(1.79051 3.44609 0.860369)
(1.78342 3.44642 0.864799)
(1.78424 3.44635 0.864318)
(1.7826 3.44651 0.865277)
(1.78821 3.44612 0.861866)
(1.78898 3.4461 0.861369)
(1.77923 3.44691 0.867149)
(1.78008 3.4468 0.866688)
(1.78505 3.44629 0.863833)
(1.78585 3.44623 0.863345)
(1.78664 3.44619 0.862855)
(1.78743 3.44615 0.862362)
(1.78093 3.44669 0.866222)
(1.78177 3.44659 0.865751)
(1.79995 3.55032 0.796602)
(1.79989 3.55032 0.796602)
(1.79979 3.55032 0.796602)
)


// edges:

224
(
(9 4)
(4 12)
(15 111)
(20 16)
(25 23)
(24 25)
(111 24)
(24 112)
(46 44)
(50 49)
(113 51)
(45 52)
(44 51)
(58 49)
(22 31)
(114 59)
(60 57)
(22 54)
(15 25)
(15 24)
(115 62)
(63 61)
(12 36)
(64 27)
(116 65)
(65 64)
(64 11)
(63 8)
(6 117)
(5 7)
(8 9)
(9 10)
(12 11)
(13 12)
(14 15)
(18 115)
(20 21)
(24 14)
(118 23)
(25 118)
(112 14)
(119 120)
(121 119)
(117 121)
(27 26)
(120 27)
(122 123)
(32 116)
(36 124)
(125 19)
(30 38)
(42 43)
(45 46)
(35 126)
(41 47)
(124 127)
(128 125)
(45 50)
(49 45)
(129 0)
(52 46)
(52 53)
(130 15)
(44 1)
(1 130)
(51 1)
(44 2)
(2 113)
(131 2)
(132 131)
(54 132)
(0 3)
(3 133)
(134 135)
(114 57)
(57 50)
(134 129)
(22 135)
(44 53)
(136 58)
(31 3)
(0 31)
(57 59)
(49 52)
(49 60)
(60 136)
(137 60)
(138 59)
(49 57)
(139 140)
(22 141)
(142 143)
(144 145)
(146 147)
(148 146)
(149 150)
(151 152)
(153 154)
(155 156)
(154 155)
(150 144)
(156 149)
(157 158)
(158 148)
(143 139)
(147 153)
(123 151)
(141 122)
(145 142)
(152 157)
(127 128)
(61 9)
(8 61)
(159 160)
(65 159)
(161 48)
(160 161)
(66 5)
(10 4)
(67 6)
(7 67)
(11 66)
(4 13)
(17 68)
(68 18)
(19 69)
(70 14)
(16 17)
(69 20)
(21 16)
(22 71)
(71 19)
(72 22)
(73 74)
(75 76)
(77 23)
(25 78)
(79 77)
(78 75)
(74 79)
(80 72)
(81 82)
(76 83)
(82 73)
(83 80)
(23 81)
(26 70)
(28 29)
(29 30)
(30 28)
(33 34)
(34 32)
(84 33)
(85 84)
(35 36)
(34 37)
(37 28)
(28 34)
(19 22)
(38 39)
(39 30)
(30 40)
(40 38)
(47 35)
(15 44)
(44 54)
(53 86)
(86 55)
(52 55)
(87 88)
(44 87)
(55 44)
(58 52)
(89 90)
(91 89)
(92 93)
(93 91)
(94 58)
(90 94)
(95 92)
(54 95)
(96 97)
(25 22)
(56 98)
(88 39)
(39 56)
(98 96)
(99 85)
(100 99)
(101 100)
(102 101)
(97 102)
(19 20)
(21 103)
(103 17)
(17 18)
(62 104)
(104 105)
(105 63)
(10 13)
(106 107)
(107 108)
(108 109)
(109 106)
(23 14)
(15 56)
(56 40)
(40 29)
(29 37)
(37 33)
(7 6)
(11 5)
(47 36)
(110 63)
(62 110)
(26 23)
(32 33)
(43 41)
(55 53)
(48 42)
(64 42)
(43 64)
(64 48)
(41 64)
)

// * * * * * * * * * * * * * * * * * * * * * * * * * * * * * * * * * * * * * //


// ************************************************************************* //
