/*--------------------------------*- C++ -*----------------------------------*\
| =========                 |                                                 |
| \\      /  F ield         | OpenFOAM: The Open Source CFD Toolbox           |
|  \\    /   O peration     | Version:  2.2.x                                 |
|   \\  /    A nd           | Web:      www.OpenFOAM.org                      |
|    \\/     M anipulation  |                                                 |
\*---------------------------------------------------------------------------*/
FoamFile
{
    version     2.0;
    format      ascii;
    class       featureEdgeMesh;
    location    "constant/triSurface";
    object      waist_left_front.eMesh;
}
// * * * * * * * * * * * * * * * * * * * * * * * * * * * * * * * * * * * * * //


// points:

77
(
(1.90629 3.48798 1.06738)
(1.9089 3.50013 1.06967)
(1.94119 3.54924 0.97293)
(1.93625 3.52631 0.972273)
(1.90978 3.52474 1.07547)
(1.93679 3.52883 0.972345)
(1.90803 3.53716 1.0772)
(1.90544 3.47437 0.943644)
(1.90319 3.4719 0.941193)
(1.91924 3.49086 0.958289)
(1.92335 3.49762 0.962155)
(1.93175 3.51484 0.969135)
(1.93537 3.52407 0.971659)
(1.80103 3.42542 0.954766)
(1.88904 3.46203 0.924268)
(1.89081 3.46326 0.926385)
(1.80093 3.4234 1.06752)
(1.84727 3.46017 0.867002)
(1.88436 3.45986 0.91838)
(1.86045 3.45625 0.886278)
(1.87455 3.45684 0.905638)
(1.86825 3.45658 0.896982)
(1.86331 3.45637 0.890208)
(1.80114 3.44153 0.870472)
(1.80133 3.44705 0.85328)
(1.81042 3.55032 0.796602)
(1.80693 3.55032 0.796602)
(1.8013 3.44711 0.853115)
(1.80132 3.4471 0.853163)
(1.8 3.55032 0.796602)
(1.81392 3.55032 0.796602)
(1.8 3.55032 1.07672)
(1.80097 3.42167 1.01109)
(1.80115 3.4418 0.869321)
(1.91673 3.48673 0.955928)
(1.92798 3.50523 0.966506)
(1.8305 3.43027 0.953993)
(1.85966 3.43582 0.950393)
(1.82512 3.44808 0.868741)
(1.84199 3.45665 0.867432)
(1.83651 3.45345 0.867866)
(1.83087 3.45058 0.868304)
(1.80569 3.45666 0.837698)
(1.80131 3.4471 0.853137)
(1.93178 3.55436 0.0916016)
(1.93161 3.55431 0.0916016)
(1.93165 3.54566 0.0916016)
(1.93182 3.54692 0.0916016)
(1.86 3.45716 0.885416)
(1.87397 3.45774 0.904587)
(1.88886 3.46224 0.92397)
(1.90286 3.53779 1.07716)
(1.81155 3.51885 0.803656)
(1.81005 3.51802 0.802927)
(1.84209 3.54051 1.07625)
(1.90993 3.52268 1.07506)
(1.90991 3.5229 1.07511)
(1.90714 3.49192 1.06813)
(1.91008 3.5124 1.07268)
(1.89696 3.46462 1.06558)
(1.87734 3.44527 1.06779)
(1.85398 3.43168 1.06886)
(1.82799 3.42423 1.06877)
(1.83141 3.4728 0.841616)
(1.81951 3.49314 0.819794)
(1.80044 3.53219 0.795396)
(1.80082 3.5142 0.797632)
(1.81217 3.55032 0.796602)
(1.80409 3.53257 0.796213)
(1.80143 3.46711 0.823571)
(1.80143 3.45566 0.837511)
(1.80112 3.49691 0.803245)
(1.81548 3.50565 0.811085)
(1.81346 3.51967 0.804142)
(1.8017 3.55032 0.796602)
(1.80344 3.55032 0.796602)
(1.80132 3.48106 0.811983)
)


// edges:

106
(
(2 3)
(3 11)
(8 15)
(21 22)
(25 52)
(53 26)
(31 54)
(54 4)
(30 2)
(29 31)
(16 31)
(27 16)
(2 5)
(6 2)
(4 6)
(55 56)
(56 4)
(0 57)
(57 1)
(7 8)
(1 58)
(58 55)
(10 9)
(12 11)
(59 0)
(60 59)
(61 60)
(8 14)
(62 61)
(16 62)
(17 63)
(20 19)
(63 64)
(65 66)
(67 25)
(26 68)
(69 70)
(70 27)
(66 71)
(53 25)
(25 26)
(72 73)
(64 72)
(74 29)
(29 65)
(26 75)
(75 74)
(71 76)
(76 69)
(73 30)
(30 67)
(28 16)
(0 1)
(5 3)
(34 7)
(9 34)
(35 10)
(11 35)
(3 12)
(36 13)
(13 37)
(37 36)
(15 14)
(38 17)
(14 18)
(19 17)
(17 39)
(18 20)
(20 21)
(22 19)
(39 40)
(41 38)
(40 41)
(27 42)
(28 24)
(42 43)
(43 28)
(44 45)
(45 46)
(46 47)
(47 44)
(9 7)
(11 10)
(5 12)
(22 48)
(49 21)
(48 17)
(18 49)
(50 18)
(15 50)
(51 6)
(31 51)
(27 28)
(28 23)
(6 31)
(4 2)
(13 32)
(32 16)
(23 13)
(24 23)
(31 4)
(2 31)
(24 33)
(33 23)
(16 13)
(16 23)
)

// * * * * * * * * * * * * * * * * * * * * * * * * * * * * * * * * * * * * * //


// ************************************************************************* //
