/*--------------------------------*- C++ -*----------------------------------*\
| =========                 |                                                 |
| \\      /  F ield         | OpenFOAM: The Open Source CFD Toolbox           |
|  \\    /   O peration     | Version:  2.2.x                                 |
|   \\  /    A nd           | Web:      www.OpenFOAM.org                      |
|    \\/     M anipulation  |                                                 |
\*---------------------------------------------------------------------------*/
FoamFile
{
    version     2.0;
    format      ascii;
    class       featureEdgeMesh;
    location    "constant/triSurface";
    object      waist_right_back.eMesh;
}
// * * * * * * * * * * * * * * * * * * * * * * * * * * * * * * * * * * * * * //


// points:

70
(
(1.78608 3.55032 0.796602)
(1.6583 3.58016 0.965315)
(1.69508 3.54942 1.07764)
(1.69944 3.56128 1.07684)
(1.65881 3.54924 0.97293)
(1.79307 3.55032 0.796602)
(1.8 3.64987 0.839904)
(1.8 3.57379 0.792436)
(1.79656 3.55032 0.796602)
(1.7983 3.55032 0.796602)
(1.79916 3.55032 0.796602)
(1.79958 3.55032 0.796602)
(1.8 3.65811 0.86295)
(1.69216 3.63939 0.902534)
(1.8 3.66199 0.911338)
(1.65831 3.58015 0.965293)
(1.80093 3.59536 1.07937)
(1.80001 3.6619 0.911864)
(1.80002 3.6618 0.912393)
(1.8 3.66197 0.911404)
(1.8 3.66196 0.91147)
(1.8 3.66194 0.911602)
(1.80004 3.66162 0.913464)
(1.80008 3.66123 0.915601)
(1.80015 3.66044 0.919867)
(1.80029 3.65872 0.928375)
(1.6798 3.63056 0.922008)
(1.69197 3.53716 1.0772)
(1.69022 3.52474 1.07547)
(1.8 3.55032 1.07672)
(1.78958 3.55032 0.796602)
(1.65823 3.57869 0.965797)
(1.65772 3.56657 0.969774)
(1.65765 3.56506 0.970271)
(1.79979 3.55032 0.796602)
(1.79989 3.55032 0.796602)
(1.79995 3.55032 0.796602)
(1.8 3.55032 0.796602)
(1.68396 3.61348 0.968447)
(1.93178 3.55436 0.0916016)
(1.93161 3.55431 0.0916016)
(1.93165 3.54566 0.0916016)
(1.93182 3.54692 0.0916016)
(1.65764 3.56785 0.969541)
(1.71625 3.653 0.908456)
(1.71128 3.6511 0.917268)
(1.69546 3.55047 1.07757)
(1.77552 3.5882 0.801003)
(1.78196 3.56977 0.797065)
(1.75686 3.61875 0.818591)
(1.76699 3.6048 0.808337)
(1.73387 3.63755 0.845332)
(1.74561 3.62976 0.831195)
(1.71017 3.64362 0.876481)
(1.8 3.6369 0.819772)
(1.8 3.61895 0.80458)
(1.8 3.59742 0.795245)
(1.8 3.66353 0.886878)
(1.71962 3.58128 1.07907)
(1.77278 3.5991 1.08039)
(1.80116 3.6232 1.0309)
(1.66225 3.59998 0.954517)
(1.74468 3.59421 1.08028)
(1.80093 3.64465 0.979274)
(1.80055 3.65474 0.945392)
(1.68403 3.63431 0.920739)
(1.688 3.63745 0.919976)
(1.70364 3.64673 0.906045)
(1.66962 3.61727 0.939658)
(1.69447 3.54704 1.07756)
)


// edges:

106
(
(44 13)
(26 45)
(0 4)
(28 29)
(29 16)
(29 11)
(46 2)
(3 46)
(47 48)
(49 50)
(48 0)
(51 52)
(53 51)
(50 47)
(52 49)
(54 6)
(55 54)
(7 56)
(5 8)
(8 9)
(9 10)
(10 11)
(12 57)
(56 55)
(13 53)
(57 14)
(58 3)
(16 59)
(60 16)
(1 61)
(62 58)
(59 62)
(63 60)
(64 63)
(65 66)
(26 65)
(26 13)
(44 67)
(61 68)
(25 64)
(68 26)
(66 45)
(69 27)
(2 69)
(27 28)
(28 4)
(0 30)
(1 3)
(31 1)
(32 31)
(33 32)
(4 33)
(11 34)
(34 35)
(35 36)
(36 37)
(37 7)
(30 5)
(3 15)
(15 38)
(38 1)
(39 40)
(40 41)
(41 42)
(42 39)
(4 43)
(43 15)
(15 1)
(0 5)
(2 4)
(5 7)
(8 7)
(9 7)
(10 7)
(11 7)
(6 12)
(17 18)
(14 19)
(19 20)
(20 21)
(21 17)
(22 23)
(18 22)
(23 24)
(24 25)
(27 4)
(4 29)
(29 2)
(27 29)
(7 29)
(29 5)
(8 29)
(29 9)
(29 10)
(12 29)
(29 6)
(23 29)
(29 22)
(29 24)
(25 29)
(29 18)
(29 17)
(29 21)
(29 20)
(19 29)
(29 14)
)

// * * * * * * * * * * * * * * * * * * * * * * * * * * * * * * * * * * * * * //


// ************************************************************************* //
