/*--------------------------------*- C++ -*----------------------------------*\
| =========                 |                                                 |
| \\      /  F ield         | OpenFOAM: The Open Source CFD Toolbox           |
|  \\    /   O peration     | Version:  2.2.x                                 |
|   \\  /    A nd           | Web:      www.OpenFOAM.org                      |
|    \\/     M anipulation  |                                                 |
\*---------------------------------------------------------------------------*/
FoamFile
{
    version     2.0;
    format      ascii;
    class       featureEdgeMesh;
    location    "constant/triSurface";
    object      waist_left_back.eMesh;
}
// * * * * * * * * * * * * * * * * * * * * * * * * * * * * * * * * * * * * * //


// points:

76
(
(1.89009 3.6501 0.90725)
(1.94168 3.58015 0.965293)
(1.90492 3.54942 1.07764)
(1.94235 3.56506 0.970271)
(1.94228 3.56655 0.969778)
(1.94119 3.54924 0.97293)
(1.90784 3.63939 0.902535)
(1.81804 3.56977 0.797065)
(1.81392 3.55032 0.796602)
(1.83301 3.6048 0.808337)
(1.85439 3.62976 0.831195)
(1.86613 3.63755 0.845332)
(1.82448 3.5882 0.801003)
(1.84314 3.61875 0.818591)
(1.8 3.55032 0.796602)
(1.8 3.66199 0.911338)
(1.80093 3.59536 1.07937)
(1.8 3.66197 0.911404)
(1.8 3.66196 0.91147)
(1.93775 3.59998 0.954517)
(1.9417 3.58016 0.965315)
(1.93038 3.61727 0.939658)
(1.9202 3.63056 0.922009)
(1.8 3.55032 1.07672)
(1.88983 3.64362 0.876481)
(1.90675 3.54227 1.07738)
(1.90663 3.54228 1.07738)
(1.91628 3.61328 0.968412)
(1.93178 3.55436 0.0916016)
(1.93161 3.55431 0.0916016)
(1.93165 3.54566 0.0916016)
(1.93182 3.54692 0.0916016)
(1.90714 3.54067 1.07732)
(1.90716 3.54059 1.07732)
(1.90286 3.53779 1.07716)
(1.90803 3.53716 1.0772)
(1.83619 3.65833 0.944304)
(1.84257 3.64705 0.975734)
(1.88356 3.65314 0.908214)
(1.82824 3.6647 0.912426)
(1.88955 3.65055 0.917368)
(1.88378 3.65304 0.908515)
(1.89345 3.64839 0.906947)
(1.90056 3.56128 1.07684)
(1.81042 3.55032 0.796602)
(1.81217 3.55032 0.796602)
(1.80693 3.55032 0.796602)
(1.8017 3.55032 0.796602)
(1.80344 3.55032 0.796602)
(1.8 3.57379 0.792436)
(1.8 3.59742 0.795245)
(1.8 3.66353 0.886878)
(1.8 3.65811 0.86295)
(1.8 3.64987 0.839904)
(1.8 3.6369 0.819772)
(1.8 3.61895 0.80458)
(1.88072 3.58106 1.07905)
(1.85602 3.5939 1.08025)
(1.80116 3.6232 1.0309)
(1.80093 3.64465 0.979274)
(1.82879 3.59882 1.08037)
(1.84136 3.65083 0.968278)
(1.82803 3.66471 0.912399)
(1.80055 3.65474 0.945392)
(1.80029 3.65872 0.928375)
(1.80001 3.6619 0.911864)
(1.8 3.66194 0.911602)
(1.80002 3.6618 0.912393)
(1.80004 3.66162 0.913464)
(1.80008 3.66123 0.915601)
(1.8397 3.65381 0.960338)
(1.80015 3.66044 0.919867)
(1.90221 3.64323 0.904323)
(1.89625 3.64682 0.905849)
(1.91602 3.63437 0.920823)
(1.91192 3.63748 0.920039)
)


// edges:

99
(
(36 37)
(17 15)
(6 38)
(17 39)
(18 17)
(40 22)
(41 42)
(23 16)
(18 15)
(14 23)
(23 2)
(2 43)
(1 4)
(3 5)
(5 2)
(44 45)
(45 8)
(46 44)
(14 47)
(47 48)
(48 46)
(49 14)
(50 49)
(15 51)
(52 53)
(54 55)
(55 50)
(51 52)
(53 54)
(56 57)
(58 59)
(57 60)
(43 56)
(16 58)
(60 16)
(37 61)
(62 17)
(63 64)
(65 66)
(67 65)
(68 67)
(66 18)
(69 68)
(70 61)
(36 70)
(59 63)
(71 69)
(64 71)
(42 0)
(72 6)
(72 73)
(0 73)
(0 38)
(74 75)
(74 22)
(39 62)
(75 40)
(4 3)
(27 1)
(20 27)
(28 29)
(29 30)
(30 31)
(31 28)
(26 23)
(32 25)
(33 32)
(23 33)
(5 4)
(34 23)
(5 35)
(35 34)
(1 3)
(24 6)
(8 7)
(10 11)
(11 24)
(13 10)
(12 9)
(7 12)
(9 13)
(19 20)
(21 19)
(22 21)
(6 22)
(8 5)
(1 7)
(1 12)
(20 12)
(19 12)
(19 9)
(21 9)
(21 13)
(22 13)
(22 10)
(22 11)
(6 11)
(25 26)
(23 5)
)

// * * * * * * * * * * * * * * * * * * * * * * * * * * * * * * * * * * * * * //


// ************************************************************************* //
